IMPHY014885
  -OEChem-01202214533D

 42 43  0     1  0  0  0  0  0999 V2000
   -0.5240    1.6105   -1.7679 O   0  0  0  0  0  0  0  0  0  0  0  0
   -0.8978    0.7095   -0.7161 C   0  0  1  0  0  0  0  0  0  0  0  0
    0.2477   -0.3432   -0.5894 C   0  0  1  0  0  0  0  0  0  0  0  0
    1.5515    0.3248   -0.0674 C   0  0  1  0  0  0  0  0  0  0  0  0
   -1.0908    1.5162    0.6077 C   0  0  1  0  0  0  0  0  0  0  0  0
    1.3235    1.0767    1.2464 C   0  0  0  0  0  0  0  0  0  0  0  0
    0.2331    2.1308    1.0914 C   0  0  0  0  0  0  0  0  0  0  0  0
   -2.1771   -0.0235   -1.1680 C   0  0  0  0  0  0  0  0  0  0  0  0
    2.7296   -0.6448    0.0640 C   0  0  0  0  0  0  0  0  0  0  0  0
   -0.1988   -1.5647    0.1900 C   0  0  0  0  0  0  0  0  0  0  0  0
   -2.6269   -1.0935   -0.1732 C   0  0  0  0  0  0  0  0  0  0  0  0
   -2.1413    2.6297    0.5034 C   0  0  0  0  0  0  0  0  0  0  0  0
   -1.4860   -1.9029    0.3882 C   0  0  0  0  0  0  0  0  0  0  0  0
    2.9305   -1.4166   -1.2360 C   0  0  0  0  0  0  0  0  0  0  0  0
    3.9987    0.1092    0.4475 C   0  0  0  0  0  0  0  0  0  0  0  0
   -1.8720   -3.1184    1.1792 C   0  0  0  0  0  0  0  0  0  0  0  0
    0.4620   -0.6979   -1.6073 H   0  0  0  0  0  0  0  0  0  0  0  0
    1.8386    1.0776   -0.8176 H   0  0  0  0  0  0  0  0  0  0  0  0
   -1.4292    0.8348    1.3985 H   0  0  0  0  0  0  0  0  0  0  0  0
    2.2234    1.6056    1.5732 H   0  0  0  0  0  0  0  0  0  0  0  0
    1.0544    0.3778    2.0478 H   0  0  0  0  0  0  0  0  0  0  0  0
    0.0809    2.6270    2.0579 H   0  0  0  0  0  0  0  0  0  0  0  0
    0.5689    2.9060    0.3908 H   0  0  0  0  0  0  0  0  0  0  0  0
   -1.9921   -0.4989   -2.1422 H   0  0  0  0  0  0  0  0  0  0  0  0
   -2.9928    0.6826   -1.3611 H   0  0  0  0  0  0  0  0  0  0  0  0
    2.5457   -1.3713    0.8643 H   0  0  0  0  0  0  0  0  0  0  0  0
    0.5661   -2.2249    0.5865 H   0  0  0  0  0  0  0  0  0  0  0  0
   -3.3380   -1.7581   -0.6786 H   0  0  0  0  0  0  0  0  0  0  0  0
   -3.1684   -0.6228    0.6562 H   0  0  0  0  0  0  0  0  0  0  0  0
   -3.1328    2.2223    0.2858 H   0  0  0  0  0  0  0  0  0  0  0  0
   -2.2196    3.1776    1.4490 H   0  0  0  0  0  0  0  0  0  0  0  0
   -1.8869    3.3504   -0.2805 H   0  0  0  0  0  0  0  0  0  0  0  0
   -0.4200    1.0982   -2.5877 H   0  0  0  0  0  0  0  0  0  0  0  0
    3.0081   -0.7423   -2.0959 H   0  0  0  0  0  0  0  0  0  0  0  0
    3.8559   -2.0025   -1.1951 H   0  0  0  0  0  0  0  0  0  0  0  0
    2.1267   -2.1329   -1.4269 H   0  0  0  0  0  0  0  0  0  0  0  0
    4.1716    0.9721   -0.2047 H   0  0  0  0  0  0  0  0  0  0  0  0
    4.8747   -0.5447    0.3651 H   0  0  0  0  0  0  0  0  0  0  0  0
    3.9768    0.4532    1.4857 H   0  0  0  0  0  0  0  0  0  0  0  0
   -0.9998   -3.6540    1.5683 H   0  0  0  0  0  0  0  0  0  0  0  0
   -2.4390   -3.8148    0.5532 H   0  0  0  0  0  0  0  0  0  0  0  0
   -2.4944   -2.8319    2.0330 H   0  0  0  0  0  0  0  0  0  0  0  0
  1  2  1  0  0  0  0
  1 33  1  0  0  0  0
  2  3  1  0  0  0  0
  2  5  1  0  0  0  0
  2  8  1  0  0  0  0
  3  4  1  0  0  0  0
  3 10  1  0  0  0  0
  3 17  1  0  0  0  0
  4  6  1  0  0  0  0
  4  9  1  0  0  0  0
  4 18  1  0  0  0  0
  5  7  1  0  0  0  0
  5 12  1  0  0  0  0
  5 19  1  0  0  0  0
  6  7  1  0  0  0  0
  6 20  1  0  0  0  0
  6 21  1  0  0  0  0
  7 22  1  0  0  0  0
  7 23  1  0  0  0  0
  8 11  1  0  0  0  0
  8 24  1  0  0  0  0
  8 25  1  0  0  0  0
  9 14  1  0  0  0  0
  9 15  1  0  0  0  0
  9 26  1  0  0  0  0
 10 13  2  0  0  0  0
 10 27  1  0  0  0  0
 11 13  1  0  0  0  0
 11 28  1  0  0  0  0
 11 29  1  0  0  0  0
 12 30  1  0  0  0  0
 12 31  1  0  0  0  0
 12 32  1  0  0  0  0
 13 16  1  0  0  0  0
 14 34  1  0  0  0  0
 14 35  1  0  0  0  0
 14 36  1  0  0  0  0
 15 37  1  0  0  0  0
 15 38  1  0  0  0  0
 15 39  1  0  0  0  0
 16 40  1  0  0  0  0
 16 41  1  0  0  0  0
 16 42  1  0  0  0  0
M  END
$$$$
