IMPHY006558
     RDKit          3D

 93 92  0  0  0  0  0  0  0  0999 V2000
  -11.0015   -0.6951    5.6147 O   0  0  0  0  0  0  0  0  0  0  0  0
    0.3007    1.9016   -2.9605 C   0  0  0  0  0  0  0  0  0  0  0  0
    0.2836    0.4928   -3.5623 C   0  0  0  0  0  0  0  0  0  0  0  0
    0.0336    1.9837   -1.4568 C   0  0  0  0  0  0  0  0  0  0  0  0
    1.2376   -0.5189   -2.9199 C   0  0  0  0  0  0  0  0  0  0  0  0
   -1.3085    1.4237   -0.9708 C   0  0  0  0  0  0  0  0  0  0  0  0
    2.7096   -0.1081   -3.0064 C   0  0  0  0  0  0  0  0  0  0  0  0
   -2.5355    2.2265   -1.4203 C   0  0  0  0  0  0  0  0  0  0  0  0
    3.6200   -1.1966   -2.4324 C   0  0  0  0  0  0  0  0  0  0  0  0
   -3.2356    1.7258   -2.6882 C   0  0  0  0  0  0  0  0  0  0  0  0
    5.1119   -0.8804   -2.5753 C   0  0  0  0  0  0  0  0  0  0  0  0
   -3.8006    0.3015   -2.6274 C   0  0  0  0  0  0  0  0  0  0  0  0
    5.5913    0.3938   -1.8726 C   0  0  0  0  0  0  0  0  0  0  0  0
   -4.7483    0.0011   -1.4611 C   0  0  0  0  0  0  0  0  0  0  0  0
    5.3054    0.4698   -0.3694 C   0  0  0  0  0  0  0  0  0  0  0  0
   -6.0084    0.8702   -1.4640 C   0  0  0  0  0  0  0  0  0  0  0  0
    5.8555   -0.6855    0.4742 C   0  0  0  0  0  0  0  0  0  0  0  0
   -6.9509    0.5809   -0.2897 C   0  0  0  0  0  0  0  0  0  0  0  0
    7.3810   -0.7998    0.4243 C   0  0  0  0  0  0  0  0  0  0  0  0
   -7.6206   -0.7935   -0.3707 C   0  0  0  0  0  0  0  0  0  0  0  0
    7.9330   -1.9554    1.2662 C   0  0  0  0  0  0  0  0  0  0  0  0
   -8.5648   -1.0781    0.8034 C   0  0  0  0  0  0  0  0  0  0  0  0
    7.6441   -1.8866    2.7667 C   0  0  0  0  0  0  0  0  0  0  0  0
   -9.7978   -0.1707    0.8253 C   0  0  0  0  0  0  0  0  0  0  0  0
    8.1325   -0.6337    3.5032 C   0  0  0  0  0  0  0  0  0  0  0  0
  -10.8497   -0.6044    1.8513 C   0  0  0  0  0  0  0  0  0  0  0  0
    9.6569   -0.5105    3.6198 C   0  0  0  0  0  0  0  0  0  0  0  0
  -10.3693   -0.4909    3.2972 C   0  0  0  0  0  0  0  0  0  0  0  0
   10.3510    0.2858    2.5119 C   0  0  0  0  0  0  0  0  0  0  0  0
  -11.4815   -0.8267    4.2834 C   0  0  0  0  0  0  0  0  0  0  0  0
    9.9918    1.7646    2.5105 C   0  0  0  0  0  0  0  0  0  0  0  0
  -10.2604   -1.3155    5.7215 H   0  0  0  0  0  0  0  0  0  0  0  0
   -0.4259    2.5238   -3.4945 H   0  0  0  0  0  0  0  0  0  0  0  0
    1.2752    2.3634   -3.1613 H   0  0  0  0  0  0  0  0  0  0  0  0
   -0.7322    0.0867   -3.5128 H   0  0  0  0  0  0  0  0  0  0  0  0
    0.5220    0.5736   -4.6304 H   0  0  0  0  0  0  0  0  0  0  0  0
    0.8377    1.4654   -0.9205 H   0  0  0  0  0  0  0  0  0  0  0  0
    0.1087    3.0352   -1.1511 H   0  0  0  0  0  0  0  0  0  0  0  0
    1.1042   -1.4807   -3.4312 H   0  0  0  0  0  0  0  0  0  0  0  0
    0.9589   -0.6871   -1.8734 H   0  0  0  0  0  0  0  0  0  0  0  0
   -1.3993    0.3629   -1.2191 H   0  0  0  0  0  0  0  0  0  0  0  0
   -1.2809    1.4664    0.1264 H   0  0  0  0  0  0  0  0  0  0  0  0
    2.9776    0.0817   -4.0525 H   0  0  0  0  0  0  0  0  0  0  0  0
    2.8621    0.8245   -2.4545 H   0  0  0  0  0  0  0  0  0  0  0  0
   -3.2646    2.2282   -0.6011 H   0  0  0  0  0  0  0  0  0  0  0  0
   -2.2572    3.2779   -1.5637 H   0  0  0  0  0  0  0  0  0  0  0  0
    3.3706   -1.3717   -1.3796 H   0  0  0  0  0  0  0  0  0  0  0  0
    3.4229   -2.1406   -2.9560 H   0  0  0  0  0  0  0  0  0  0  0  0
   -4.0516    2.4201   -2.9232 H   0  0  0  0  0  0  0  0  0  0  0  0
   -2.5506    1.7869   -3.5396 H   0  0  0  0  0  0  0  0  0  0  0  0
    5.3540   -0.7956   -3.6423 H   0  0  0  0  0  0  0  0  0  0  0  0
    5.6871   -1.7374   -2.2051 H   0  0  0  0  0  0  0  0  0  0  0  0
   -4.3276    0.1030   -3.5695 H   0  0  0  0  0  0  0  0  0  0  0  0
   -2.9746   -0.4178   -2.5937 H   0  0  0  0  0  0  0  0  0  0  0  0
    5.1365    1.2671   -2.3555 H   0  0  0  0  0  0  0  0  0  0  0  0
    6.6695    0.4986   -2.0431 H   0  0  0  0  0  0  0  0  0  0  0  0
   -4.2190    0.1114   -0.5080 H   0  0  0  0  0  0  0  0  0  0  0  0
   -5.0315   -1.0549   -1.5350 H   0  0  0  0  0  0  0  0  0  0  0  0
    4.2222    0.5319   -0.2098 H   0  0  0  0  0  0  0  0  0  0  0  0
    5.7184    1.4126    0.0115 H   0  0  0  0  0  0  0  0  0  0  0  0
   -6.5477    0.7407   -2.4100 H   0  0  0  0  0  0  0  0  0  0  0  0
   -5.7232    1.9266   -1.4040 H   0  0  0  0  0  0  0  0  0  0  0  0
    5.5355   -0.5147    1.5085 H   0  0  0  0  0  0  0  0  0  0  0  0
    5.4009   -1.6322    0.1617 H   0  0  0  0  0  0  0  0  0  0  0  0
   -6.4011    0.6723    0.6548 H   0  0  0  0  0  0  0  0  0  0  0  0
   -7.7204    1.3610   -0.2854 H   0  0  0  0  0  0  0  0  0  0  0  0
    7.7019   -0.9679   -0.6100 H   0  0  0  0  0  0  0  0  0  0  0  0
    7.8310    0.1478    0.7371 H   0  0  0  0  0  0  0  0  0  0  0  0
   -8.1707   -0.8835   -1.3152 H   0  0  0  0  0  0  0  0  0  0  0  0
   -6.8546   -1.5767   -0.3746 H   0  0  0  0  0  0  0  0  0  0  0  0
    7.5163   -2.8955    0.8822 H   0  0  0  0  0  0  0  0  0  0  0  0
    9.0146   -2.0272    1.1079 H   0  0  0  0  0  0  0  0  0  0  0  0
   -8.8911   -2.1230    0.7320 H   0  0  0  0  0  0  0  0  0  0  0  0
   -8.0074   -0.9823    1.7421 H   0  0  0  0  0  0  0  0  0  0  0  0
    8.0859   -2.7714    3.2427 H   0  0  0  0  0  0  0  0  0  0  0  0
    6.5631   -1.9797    2.9264 H   0  0  0  0  0  0  0  0  0  0  0  0
  -10.2657   -0.1763   -0.1668 H   0  0  0  0  0  0  0  0  0  0  0  0
   -9.5029    0.8642    1.0323 H   0  0  0  0  0  0  0  0  0  0  0  0
    7.6812    0.2673    3.0788 H   0  0  0  0  0  0  0  0  0  0  0  0
    7.7382   -0.7051    4.5260 H   0  0  0  0  0  0  0  0  0  0  0  0
  -11.7372    0.0268    1.7180 H   0  0  0  0  0  0  0  0  0  0  0  0
  -11.1624   -1.6352    1.6445 H   0  0  0  0  0  0  0  0  0  0  0  0
    9.8875   -0.0229    4.5761 H   0  0  0  0  0  0  0  0  0  0  0  0
   10.1049   -1.5100    3.6755 H   0  0  0  0  0  0  0  0  0  0  0  0
  -10.0014    0.5229    3.4978 H   0  0  0  0  0  0  0  0  0  0  0  0
   -9.5209   -1.1612    3.4769 H   0  0  0  0  0  0  0  0  0  0  0  0
   10.1410   -0.1414    1.5284 H   0  0  0  0  0  0  0  0  0  0  0  0
   11.4347    0.1999    2.6597 H   0  0  0  0  0  0  0  0  0  0  0  0
  -12.3290   -0.1449    4.1625 H   0  0  0  0  0  0  0  0  0  0  0  0
  -11.8420   -1.8509    4.1439 H   0  0  0  0  0  0  0  0  0  0  0  0
   10.1897    2.2180    3.4869 H   0  0  0  0  0  0  0  0  0  0  0  0
    8.9397    1.9266    2.2614 H   0  0  0  0  0  0  0  0  0  0  0  0
   10.5929    2.2948    1.7647 H   0  0  0  0  0  0  0  0  0  0  0  0
  1 30  1  0
  2  3  1  0
  2  4  1  0
  3  5  1  0
  4  6  1  0
  5  7  1  0
  6  8  1  0
  7  9  1  0
  8 10  1  0
  9 11  1  0
 10 12  1  0
 11 13  1  0
 12 14  1  0
 13 15  1  0
 14 16  1  0
 15 17  1  0
 16 18  1  0
 17 19  1  0
 18 20  1  0
 19 21  1  0
 20 22  1  0
 21 23  1  0
 22 24  1  0
 23 25  1  0
 24 26  1  0
 25 27  1  0
 26 28  1  0
 27 29  1  0
 28 30  1  0
 29 31  1  0
  1 32  1  0
  2 33  1  0
  2 34  1  0
  3 35  1  0
  3 36  1  0
  4 37  1  0
  4 38  1  0
  5 39  1  0
  5 40  1  0
  6 41  1  0
  6 42  1  0
  7 43  1  0
  7 44  1  0
  8 45  1  0
  8 46  1  0
  9 47  1  0
  9 48  1  0
 10 49  1  0
 10 50  1  0
 11 51  1  0
 11 52  1  0
 12 53  1  0
 12 54  1  0
 13 55  1  0
 13 56  1  0
 14 57  1  0
 14 58  1  0
 15 59  1  0
 15 60  1  0
 16 61  1  0
 16 62  1  0
 17 63  1  0
 17 64  1  0
 18 65  1  0
 18 66  1  0
 19 67  1  0
 19 68  1  0
 20 69  1  0
 20 70  1  0
 21 71  1  0
 21 72  1  0
 22 73  1  0
 22 74  1  0
 23 75  1  0
 23 76  1  0
 24 77  1  0
 24 78  1  0
 25 79  1  0
 25 80  1  0
 26 81  1  0
 26 82  1  0
 27 83  1  0
 27 84  1  0
 28 85  1  0
 28 86  1  0
 29 87  1  0
 29 88  1  0
 30 89  1  0
 30 90  1  0
 31 91  1  0
 31 92  1  0
 31 93  1  0
M  END
$$$$
