IMPHY004887
     RDKit          3D

 55 54  0  0  0  0  0  0  0  0999 V2000
    4.8357    2.0894    1.2758 O   0  0  0  0  0  0  0  0  0  0  0  0
   -8.7864    0.7686   -1.3734 O   0  0  0  0  0  0  0  0  0  0  0  0
   -8.3223    1.6622    0.6148 O   0  0  0  0  0  0  0  0  0  0  0  0
   -1.8024   -0.9536    1.1417 C   0  0  0  0  0  0  0  0  0  0  0  0
   -0.8248   -0.9449   -0.0354 C   0  0  0  0  0  0  0  0  0  0  0  0
   -3.0321   -1.8358    0.9056 C   0  0  0  0  0  0  0  0  0  0  0  0
    0.4349   -0.1400    0.2963 C   0  0  0  0  0  0  0  0  0  0  0  0
   -3.9117   -1.4454   -0.2866 C   0  0  0  0  0  0  0  0  0  0  0  0
    1.4121   -0.1309   -0.8813 C   0  0  0  0  0  0  0  0  0  0  0  0
   -4.4544   -0.0132   -0.2669 C   0  0  0  0  0  0  0  0  0  0  0  0
    2.6412    0.7494   -0.6432 C   0  0  0  0  0  0  0  0  0  0  0  0
   -5.2903    0.3607    0.9616 C   0  0  0  0  0  0  0  0  0  0  0  0
    3.5383    0.2444    0.4814 C   0  0  0  0  0  0  0  0  0  0  0  0
   -6.5111   -0.5271    1.2353 C   0  0  0  0  0  0  0  0  0  0  0  0
    4.7994    1.0808    0.5713 C   0  0  0  0  0  0  0  0  0  0  0  0
    5.9826    0.6191   -0.2646 C   0  0  0  0  0  0  0  0  0  0  0  0
   -7.5301   -0.5939    0.0980 C   0  0  0  0  0  0  0  0  0  0  0  0
    7.1725    1.5724   -0.1665 C   0  0  0  0  0  0  0  0  0  0  0  0
    8.3305    1.1928   -1.0911 C   0  0  0  0  0  0  0  0  0  0  0  0
   -8.2175    0.7215   -0.1527 C   0  0  0  0  0  0  0  0  0  0  0  0
    8.9827   -0.1335   -0.7328 C   0  0  0  0  0  0  0  0  0  0  0  0
   -9.2100    1.6522   -1.4022 H   0  0  0  0  0  0  0  0  0  0  0  0
   -2.1122    0.0713    1.3752 H   0  0  0  0  0  0  0  0  0  0  0  0
   -1.2843   -1.3283    2.0336 H   0  0  0  0  0  0  0  0  0  0  0  0
   -0.5457   -1.9745   -0.2895 H   0  0  0  0  0  0  0  0  0  0  0  0
   -1.3050   -0.5097   -0.9189 H   0  0  0  0  0  0  0  0  0  0  0  0
   -2.7002   -2.8719    0.7619 H   0  0  0  0  0  0  0  0  0  0  0  0
   -3.6381   -1.8396    1.8192 H   0  0  0  0  0  0  0  0  0  0  0  0
    0.1556    0.8896    0.5507 H   0  0  0  0  0  0  0  0  0  0  0  0
    0.9157   -0.5750    1.1796 H   0  0  0  0  0  0  0  0  0  0  0  0
   -4.7494   -2.1507   -0.3441 H   0  0  0  0  0  0  0  0  0  0  0  0
   -3.3470   -1.5889   -1.2156 H   0  0  0  0  0  0  0  0  0  0  0  0
    1.7321   -1.1558   -1.1053 H   0  0  0  0  0  0  0  0  0  0  0  0
    0.8938    0.2401   -1.7742 H   0  0  0  0  0  0  0  0  0  0  0  0
   -3.6185    0.6925   -0.3440 H   0  0  0  0  0  0  0  0  0  0  0  0
   -5.0510    0.1447   -1.1732 H   0  0  0  0  0  0  0  0  0  0  0  0
    2.3251    1.7784   -0.4306 H   0  0  0  0  0  0  0  0  0  0  0  0
    3.2165    0.7956   -1.5763 H   0  0  0  0  0  0  0  0  0  0  0  0
   -5.6171    1.4013    0.8480 H   0  0  0  0  0  0  0  0  0  0  0  0
   -4.6501    0.3492    1.8518 H   0  0  0  0  0  0  0  0  0  0  0  0
    3.8187   -0.8032    0.3265 H   0  0  0  0  0  0  0  0  0  0  0  0
    3.0326    0.3007    1.4514 H   0  0  0  0  0  0  0  0  0  0  0  0
   -6.1763   -1.5449    1.4663 H   0  0  0  0  0  0  0  0  0  0  0  0
   -7.0052   -0.1577    2.1429 H   0  0  0  0  0  0  0  0  0  0  0  0
    6.2631   -0.3784    0.0889 H   0  0  0  0  0  0  0  0  0  0  0  0
    5.6544    0.5431   -1.3066 H   0  0  0  0  0  0  0  0  0  0  0  0
   -7.0499   -0.9323   -0.8253 H   0  0  0  0  0  0  0  0  0  0  0  0
   -8.3088   -1.3208    0.3557 H   0  0  0  0  0  0  0  0  0  0  0  0
    6.8447    2.5873   -0.4254 H   0  0  0  0  0  0  0  0  0  0  0  0
    7.5272    1.6183    0.8708 H   0  0  0  0  0  0  0  0  0  0  0  0
    7.9829    1.1594   -2.1302 H   0  0  0  0  0  0  0  0  0  0  0  0
    9.0910    1.9809   -1.0368 H   0  0  0  0  0  0  0  0  0  0  0  0
    8.2968   -0.9719   -0.8849 H   0  0  0  0  0  0  0  0  0  0  0  0
    9.3127   -0.1401    0.3108 H   0  0  0  0  0  0  0  0  0  0  0  0
    9.8592   -0.3040   -1.3662 H   0  0  0  0  0  0  0  0  0  0  0  0
  1 15  2  0
  2 20  1  0
  3 20  2  0
  4  5  1  0
  4  6  1  0
  5  7  1  0
  6  8  1  0
  7  9  1  0
  8 10  1  0
  9 11  1  0
 10 12  1  0
 11 13  1  0
 12 14  1  0
 13 15  1  0
 14 17  1  0
 15 16  1  0
 16 18  1  0
 17 20  1  0
 18 19  1  0
 19 21  1  0
  2 22  1  0
  4 23  1  0
  4 24  1  0
  5 25  1  0
  5 26  1  0
  6 27  1  0
  6 28  1  0
  7 29  1  0
  7 30  1  0
  8 31  1  0
  8 32  1  0
  9 33  1  0
  9 34  1  0
 10 35  1  0
 10 36  1  0
 11 37  1  0
 11 38  1  0
 12 39  1  0
 12 40  1  0
 13 41  1  0
 13 42  1  0
 14 43  1  0
 14 44  1  0
 16 45  1  0
 16 46  1  0
 17 47  1  0
 17 48  1  0
 18 49  1  0
 18 50  1  0
 19 51  1  0
 19 52  1  0
 21 53  1  0
 21 54  1  0
 21 55  1  0
M  END
$$$$
