IMPHY014733
     RDKit          3D

 85 84  0  0  0  0  0  0  0  0999 V2000
   -0.5726    1.7049   -0.9673 O   0  0  0  0  0  0  0  0  0  0  0  0
   -8.3866   -3.1588   -2.2716 O   0  0  0  0  0  0  0  0  0  0  0  0
  -10.5163   -2.6683   -1.8318 O   0  0  0  0  0  0  0  0  0  0  0  0
   -6.0887    1.8908   -0.5420 C   0  0  0  0  0  0  0  0  0  0  0  0
   -5.0072    1.7710    0.5335 C   0  0  0  0  0  0  0  0  0  0  0  0
   -7.1026    3.0007   -0.2631 C   0  0  0  0  0  0  0  0  0  0  0  0
    5.0119    0.1280   -1.7827 C   0  0  0  0  0  0  0  0  0  0  0  0
    6.2053   -0.4997   -2.5141 C   0  0  0  0  0  0  0  0  0  0  0  0
   -3.9987    0.6739    0.1818 C   0  0  0  0  0  0  0  0  0  0  0  0
    4.6327   -0.6175   -0.4997 C   0  0  0  0  0  0  0  0  0  0  0  0
    7.5509    0.1838   -2.2433 C   0  0  0  0  0  0  0  0  0  0  0  0
   -7.9502    2.8511    1.0056 C   0  0  0  0  0  0  0  0  0  0  0  0
   -2.9141    0.5547    1.2544 C   0  0  0  0  0  0  0  0  0  0  0  0
    3.5101    0.0640    0.2895 C   0  0  0  0  0  0  0  0  0  0  0  0
    8.0723    0.1194   -0.8061 C   0  0  0  0  0  0  0  0  0  0  0  0
   -8.8921    1.6402    1.0111 C   0  0  0  0  0  0  0  0  0  0  0  0
   -1.9429   -0.6070    1.0159 C   0  0  0  0  0  0  0  0  0  0  0  0
    2.1694    0.0810   -0.4461 C   0  0  0  0  0  0  0  0  0  0  0  0
    8.4061   -1.3026   -0.3484 C   0  0  0  0  0  0  0  0  0  0  0  0
   -8.3124    0.4245    1.7401 C   0  0  0  0  0  0  0  0  0  0  0  0
   -1.1335   -0.5198   -0.2749 C   0  0  0  0  0  0  0  0  0  0  0  0
    1.0658    0.6604    0.4327 C   0  0  0  0  0  0  0  0  0  0  0  0
    8.8593   -1.3794    1.1136 C   0  0  0  0  0  0  0  0  0  0  0  0
   -9.3152   -0.7242    1.8955 C   0  0  0  0  0  0  0  0  0  0  0  0
   -0.2456    0.7074   -0.3228 C   0  0  0  0  0  0  0  0  0  0  0  0
   10.1112   -0.5726    1.4711 C   0  0  0  0  0  0  0  0  0  0  0  0
   -9.8532   -1.3179    0.5905 C   0  0  0  0  0  0  0  0  0  0  0  0
   11.3498   -0.9863    0.6762 C   0  0  0  0  0  0  0  0  0  0  0  0
   -8.7618   -1.8914   -0.3116 C   0  0  0  0  0  0  0  0  0  0  0  0
   12.5874   -0.2393    1.1496 C   0  0  0  0  0  0  0  0  0  0  0  0
   -9.3433   -2.5889   -1.5119 C   0  0  0  0  0  0  0  0  0  0  0  0
   -8.8844   -3.5654   -3.0117 H   0  0  0  0  0  0  0  0  0  0  0  0
   -6.6041    0.9342   -0.6743 H   0  0  0  0  0  0  0  0  0  0  0  0
   -5.6057    2.1088   -1.5032 H   0  0  0  0  0  0  0  0  0  0  0  0
   -4.4855    2.7302    0.6363 H   0  0  0  0  0  0  0  0  0  0  0  0
   -5.4591    1.5440    1.5047 H   0  0  0  0  0  0  0  0  0  0  0  0
   -6.5683    3.9577   -0.2076 H   0  0  0  0  0  0  0  0  0  0  0  0
   -7.7746    3.0791   -1.1271 H   0  0  0  0  0  0  0  0  0  0  0  0
    4.1540    0.0967   -2.4650 H   0  0  0  0  0  0  0  0  0  0  0  0
    5.2042    1.1859   -1.5694 H   0  0  0  0  0  0  0  0  0  0  0  0
    6.0185   -0.4032   -3.5921 H   0  0  0  0  0  0  0  0  0  0  0  0
    6.2650   -1.5757   -2.3186 H   0  0  0  0  0  0  0  0  0  0  0  0
   -4.5213   -0.2848    0.0792 H   0  0  0  0  0  0  0  0  0  0  0  0
   -3.5448    0.9039   -0.7884 H   0  0  0  0  0  0  0  0  0  0  0  0
    4.3355   -1.6443   -0.7456 H   0  0  0  0  0  0  0  0  0  0  0  0
    5.5024   -0.6947    0.1593 H   0  0  0  0  0  0  0  0  0  0  0  0
    7.4711    1.2392   -2.5336 H   0  0  0  0  0  0  0  0  0  0  0  0
    8.3023   -0.2577   -2.9103 H   0  0  0  0  0  0  0  0  0  0  0  0
   -8.5746    3.7522    1.0707 H   0  0  0  0  0  0  0  0  0  0  0  0
   -7.3186    2.8632    1.9006 H   0  0  0  0  0  0  0  0  0  0  0  0
   -3.3920    0.4005    2.2301 H   0  0  0  0  0  0  0  0  0  0  0  0
   -2.3598    1.4978    1.3277 H   0  0  0  0  0  0  0  0  0  0  0  0
    3.8083    1.0892    0.5406 H   0  0  0  0  0  0  0  0  0  0  0  0
    3.3892   -0.4708    1.2399 H   0  0  0  0  0  0  0  0  0  0  0  0
    7.3553    0.5844   -0.1215 H   0  0  0  0  0  0  0  0  0  0  0  0
    8.9802    0.7325   -0.7608 H   0  0  0  0  0  0  0  0  0  0  0  0
   -9.1770    1.3822   -0.0145 H   0  0  0  0  0  0  0  0  0  0  0  0
   -9.8148    1.9332    1.5285 H   0  0  0  0  0  0  0  0  0  0  0  0
   -1.2599   -0.6610    1.8722 H   0  0  0  0  0  0  0  0  0  0  0  0
   -2.5075   -1.5476    1.0114 H   0  0  0  0  0  0  0  0  0  0  0  0
    2.2467    0.6765   -1.3630 H   0  0  0  0  0  0  0  0  0  0  0  0
    1.9034   -0.9374   -0.7540 H   0  0  0  0  0  0  0  0  0  0  0  0
    9.1732   -1.7319   -1.0029 H   0  0  0  0  0  0  0  0  0  0  0  0
    7.5239   -1.9438   -0.4522 H   0  0  0  0  0  0  0  0  0  0  0  0
   -7.4144    0.0594    1.2354 H   0  0  0  0  0  0  0  0  0  0  0  0
   -7.9950    0.7301    2.7452 H   0  0  0  0  0  0  0  0  0  0  0  0
   -1.7856   -0.5133   -1.1546 H   0  0  0  0  0  0  0  0  0  0  0  0
   -0.4983   -1.4069   -0.3764 H   0  0  0  0  0  0  0  0  0  0  0  0
    1.3134    1.6816    0.7451 H   0  0  0  0  0  0  0  0  0  0  0  0
    0.9375    0.0712    1.3464 H   0  0  0  0  0  0  0  0  0  0  0  0
    9.0345   -2.4329    1.3654 H   0  0  0  0  0  0  0  0  0  0  0  0
    8.0361   -1.0434    1.7566 H   0  0  0  0  0  0  0  0  0  0  0  0
   -8.8378   -1.5229    2.4769 H   0  0  0  0  0  0  0  0  0  0  0  0
  -10.1655   -0.3754    2.4947 H   0  0  0  0  0  0  0  0  0  0  0  0
    9.9211    0.4981    1.3345 H   0  0  0  0  0  0  0  0  0  0  0  0
   10.3094   -0.7134    2.5413 H   0  0  0  0  0  0  0  0  0  0  0  0
  -10.4335   -0.5661    0.0427 H   0  0  0  0  0  0  0  0  0  0  0  0
  -10.5643   -2.1138    0.8473 H   0  0  0  0  0  0  0  0  0  0  0  0
   11.5181   -2.0642    0.7822 H   0  0  0  0  0  0  0  0  0  0  0  0
   11.2044   -0.7810   -0.3897 H   0  0  0  0  0  0  0  0  0  0  0  0
   -8.1095   -1.0921   -0.6765 H   0  0  0  0  0  0  0  0  0  0  0  0
   -8.1629   -2.6178    0.2485 H   0  0  0  0  0  0  0  0  0  0  0  0
   12.7926   -0.4479    2.2044 H   0  0  0  0  0  0  0  0  0  0  0  0
   12.4621    0.8417    1.0305 H   0  0  0  0  0  0  0  0  0  0  0  0
   13.4614   -0.5464    0.5667 H   0  0  0  0  0  0  0  0  0  0  0  0
  1 25  2  0
  2 31  1  0
  3 31  2  0
  4  5  1  0
  4  6  1  0
  5  9  1  0
  6 12  1  0
  7  8  1  0
  7 10  1  0
  8 11  1  0
  9 13  1  0
 10 14  1  0
 11 15  1  0
 12 16  1  0
 13 17  1  0
 14 18  1  0
 15 19  1  0
 16 20  1  0
 17 21  1  0
 18 22  1  0
 19 23  1  0
 20 24  1  0
 21 25  1  0
 22 25  1  0
 23 26  1  0
 24 27  1  0
 26 28  1  0
 27 29  1  0
 28 30  1  0
 29 31  1  0
  2 32  1  0
  4 33  1  0
  4 34  1  0
  5 35  1  0
  5 36  1  0
  6 37  1  0
  6 38  1  0
  7 39  1  0
  7 40  1  0
  8 41  1  0
  8 42  1  0
  9 43  1  0
  9 44  1  0
 10 45  1  0
 10 46  1  0
 11 47  1  0
 11 48  1  0
 12 49  1  0
 12 50  1  0
 13 51  1  0
 13 52  1  0
 14 53  1  0
 14 54  1  0
 15 55  1  0
 15 56  1  0
 16 57  1  0
 16 58  1  0
 17 59  1  0
 17 60  1  0
 18 61  1  0
 18 62  1  0
 19 63  1  0
 19 64  1  0
 20 65  1  0
 20 66  1  0
 21 67  1  0
 21 68  1  0
 22 69  1  0
 22 70  1  0
 23 71  1  0
 23 72  1  0
 24 73  1  0
 24 74  1  0
 26 75  1  0
 26 76  1  0
 27 77  1  0
 27 78  1  0
 28 79  1  0
 28 80  1  0
 29 81  1  0
 29 82  1  0
 30 83  1  0
 30 84  1  0
 30 85  1  0
M  END
$$$$
