IMPHY011643
  -OEChem-01202214553D

 26 26  0     0  0  0  0  0  0999 V2000
    0.7199   -0.2501    0.0043 C   0  0  0  0  0  0  0  0  0  0  0  0
    2.2118   -0.3860    0.0574 C   0  0  0  0  0  0  0  0  0  0  0  0
    0.1754    1.1401   -0.2140 C   0  0  0  0  0  0  0  0  0  0  0  0
   -1.3314    1.3030    0.0614 C   0  0  0  0  0  0  0  0  0  0  0  0
   -2.1342    0.0267    0.0070 C   0  0  0  0  0  0  0  0  0  0  0  0
   -0.1004   -1.3071    0.1212 C   0  0  0  0  0  0  0  0  0  0  0  0
    2.8321    0.0794   -1.2561 C   0  0  0  0  0  0  0  0  0  0  0  0
    2.7848    0.3945    1.2372 C   0  0  0  0  0  0  0  0  0  0  0  0
   -1.5329   -1.1740    0.0294 C   0  0  0  0  0  0  0  0  0  0  0  0
   -3.6250    0.1734   -0.0478 C   0  0  0  0  0  0  0  0  0  0  0  0
    2.4800   -1.4416    0.1970 H   0  0  0  0  0  0  0  0  0  0  0  0
    0.6991    1.8785    0.4011 H   0  0  0  0  0  0  0  0  0  0  0  0
    0.3595    1.4204   -1.2593 H   0  0  0  0  0  0  0  0  0  0  0  0
   -1.7364    2.0278   -0.6559 H   0  0  0  0  0  0  0  0  0  0  0  0
   -1.4655    1.7438    1.0580 H   0  0  0  0  0  0  0  0  0  0  0  0
    0.2895   -2.3094    0.2670 H   0  0  0  0  0  0  0  0  0  0  0  0
    2.7139    1.1568   -1.4157 H   0  0  0  0  0  0  0  0  0  0  0  0
    2.3905   -0.4430   -2.1122 H   0  0  0  0  0  0  0  0  0  0  0  0
    3.9076   -0.1310   -1.2616 H   0  0  0  0  0  0  0  0  0  0  0  0
    2.2707    0.1417    2.1713 H   0  0  0  0  0  0  0  0  0  0  0  0
    2.7281    1.4787    1.0962 H   0  0  0  0  0  0  0  0  0  0  0  0
    3.8446    0.1479    1.3693 H   0  0  0  0  0  0  0  0  0  0  0  0
   -2.1103   -2.0927    0.0017 H   0  0  0  0  0  0  0  0  0  0  0  0
   -3.9839    0.7275    0.8256 H   0  0  0  0  0  0  0  0  0  0  0  0
   -4.1342   -0.7959   -0.0607 H   0  0  0  0  0  0  0  0  0  0  0  0
   -3.9202    0.7175   -0.9508 H   0  0  0  0  0  0  0  0  0  0  0  0
  1  2  1  0  0  0  0
  1  3  1  0  0  0  0
  1  6  2  0  0  0  0
  2  7  1  0  0  0  0
  2  8  1  0  0  0  0
  2 11  1  0  0  0  0
  3  4  1  0  0  0  0
  3 12  1  0  0  0  0
  3 13  1  0  0  0  0
  4  5  1  0  0  0  0
  4 14  1  0  0  0  0
  4 15  1  0  0  0  0
  5  9  2  0  0  0  0
  5 10  1  0  0  0  0
  6  9  1  0  0  0  0
  6 16  1  0  0  0  0
  7 17  1  0  0  0  0
  7 18  1  0  0  0  0
  7 19  1  0  0  0  0
  8 20  1  0  0  0  0
  8 21  1  0  0  0  0
  8 22  1  0  0  0  0
  9 23  1  0  0  0  0
 10 24  1  0  0  0  0
 10 25  1  0  0  0  0
 10 26  1  0  0  0  0
M  END
$$$$
