IMPHY004049
  -OEChem-01202214463D

 40 42  0     1  0  0  0  0  0999 V2000
    4.1303    1.8906   -0.2781 O   0  0  0  0  0  0  0  0  0  0  0  0
   -2.3231   -0.3601    0.7269 C   0  0  0  0  0  0  0  0  0  0  0  0
   -2.2338    1.0863    1.1066 C   0  0  2  0  0  0  0  0  0  0  0  0
   -3.3266    0.6229    0.2064 C   0  0  1  0  0  0  0  0  0  0  0  0
   -1.3028   -0.6336   -0.3708 C   0  0  1  0  0  0  0  0  0  0  0  0
   -1.4020    0.8199   -0.9988 C   0  0  0  0  0  0  0  0  0  0  0  0
   -1.1879    1.7542    0.2413 C   0  0  0  0  0  0  0  0  0  0  0  0
   -2.9441    1.0094   -1.2054 C   0  0  0  0  0  0  0  0  0  0  0  0
   -2.7021   -1.3892    1.7160 C   0  0  0  0  0  0  0  0  0  0  0  0
    0.0876   -0.9723    0.1797 C   0  0  0  0  0  0  0  0  0  0  0  0
   -1.7424   -1.7483   -1.3272 C   0  0  0  0  0  0  0  0  0  0  0  0
    1.1481   -0.8604   -0.9086 C   0  0  0  0  0  0  0  0  0  0  0  0
    2.5102   -1.1822   -0.3620 C   0  0  0  0  0  0  0  0  0  0  0  0
    3.3978   -0.3331    0.1905 C   0  0  0  0  0  0  0  0  0  0  0  0
    3.1530    1.1333    0.4230 C   0  0  0  0  0  0  0  0  0  0  0  0
    4.7377   -0.8374    0.6606 C   0  0  0  0  0  0  0  0  0  0  0  0
   -2.4186    1.4542    2.0968 H   0  0  0  0  0  0  0  0  0  0  0  0
   -4.3583    0.6316    0.4989 H   0  0  0  0  0  0  0  0  0  0  0  0
   -0.7938    1.0361   -1.8769 H   0  0  0  0  0  0  0  0  0  0  0  0
   -0.1859    1.7048    0.6696 H   0  0  0  0  0  0  0  0  0  0  0  0
   -1.4425    2.7971    0.0262 H   0  0  0  0  0  0  0  0  0  0  0  0
   -3.2116    2.0463   -1.4328 H   0  0  0  0  0  0  0  0  0  0  0  0
   -3.3707    0.3452   -1.9600 H   0  0  0  0  0  0  0  0  0  0  0  0
   -3.4558   -1.0186    2.4194 H   0  0  0  0  0  0  0  0  0  0  0  0
   -3.1186   -2.2717    1.2203 H   0  0  0  0  0  0  0  0  0  0  0  0
   -1.8330   -1.7062    2.3008 H   0  0  0  0  0  0  0  0  0  0  0  0
    0.0849   -1.9917    0.5905 H   0  0  0  0  0  0  0  0  0  0  0  0
    0.3503   -0.3357    1.0327 H   0  0  0  0  0  0  0  0  0  0  0  0
   -2.8191   -1.7302   -1.5249 H   0  0  0  0  0  0  0  0  0  0  0  0
   -1.2303   -1.6773   -2.2919 H   0  0  0  0  0  0  0  0  0  0  0  0
   -1.5361   -2.7382   -0.9039 H   0  0  0  0  0  0  0  0  0  0  0  0
    0.9498   -1.5584   -1.7294 H   0  0  0  0  0  0  0  0  0  0  0  0
    1.1650    0.1369   -1.3576 H   0  0  0  0  0  0  0  0  0  0  0  0
    2.7892   -2.2316   -0.4496 H   0  0  0  0  0  0  0  0  0  0  0  0
    3.2425    1.3637    1.4896 H   0  0  0  0  0  0  0  0  0  0  0  0
    2.1661    1.4704    0.0992 H   0  0  0  0  0  0  0  0  0  0  0  0
    5.5473   -0.3567    0.1023 H   0  0  0  0  0  0  0  0  0  0  0  0
    4.8445   -1.9196    0.5295 H   0  0  0  0  0  0  0  0  0  0  0  0
    4.8717   -0.6205    1.7255 H   0  0  0  0  0  0  0  0  0  0  0  0
    4.0151    1.7126   -1.2274 H   0  0  0  0  0  0  0  0  0  0  0  0
  1 15  1  0  0  0  0
  1 40  1  0  0  0  0
  2  3  1  0  0  0  0
  2  4  1  0  0  0  0
  2  5  1  0  0  0  0
  2  9  1  0  0  0  0
  3  4  1  0  0  0  0
  3  7  1  0  0  0  0
  3 17  1  0  0  0  0
  4  8  1  0  0  0  0
  4 18  1  0  0  0  0
  5  6  1  0  0  0  0
  5 10  1  0  0  0  0
  5 11  1  0  0  0  0
  6  7  1  0  0  0  0
  6  8  1  0  0  0  0
  6 19  1  0  0  0  0
  7 20  1  0  0  0  0
  7 21  1  0  0  0  0
  8 22  1  0  0  0  0
  8 23  1  0  0  0  0
  9 24  1  0  0  0  0
  9 25  1  0  0  0  0
  9 26  1  0  0  0  0
 10 12  1  0  0  0  0
 10 27  1  0  0  0  0
 10 28  1  0  0  0  0
 11 29  1  0  0  0  0
 11 30  1  0  0  0  0
 11 31  1  0  0  0  0
 12 13  1  0  0  0  0
 12 32  1  0  0  0  0
 12 33  1  0  0  0  0
 13 14  2  0  0  0  0
 13 34  1  0  0  0  0
 14 15  1  0  0  0  0
 14 16  1  0  0  0  0
 15 35  1  0  0  0  0
 15 36  1  0  0  0  0
 16 37  1  0  0  0  0
 16 38  1  0  0  0  0
 16 39  1  0  0  0  0
M  END
$$$$
