IMPHY011581
  -OEChem-01202214463D

 39 40  0     1  0  0  0  0  0999 V2000
    0.9766   -1.0356    0.0292 C   0  0  1  0  0  0  0  0  0  0  0  0
    0.6758    0.4322   -0.4144 C   0  0  1  0  0  0  0  0  0  0  0  0
   -0.1048   -1.9638   -0.5724 C   0  0  0  0  0  0  0  0  0  0  0  0
   -0.7317    0.8644    0.0466 C   0  0  0  0  0  0  0  0  0  0  0  0
   -1.8163   -0.0783   -0.5081 C   0  0  1  0  0  0  0  0  0  0  0  0
    2.3633   -1.4243   -0.5367 C   0  0  0  0  0  0  0  0  0  0  0  0
   -1.5289   -1.5516   -0.1903 C   0  0  0  0  0  0  0  0  0  0  0  0
    1.8097    1.3889   -0.0641 C   0  0  0  0  0  0  0  0  0  0  0  0
    0.9931   -1.2104    1.5701 C   0  0  0  0  0  0  0  0  0  0  0  0
    3.4803   -0.4989   -0.0433 C   0  0  0  0  0  0  0  0  0  0  0  0
    3.0699    0.9391    0.0890 C   0  0  0  0  0  0  0  0  0  0  0  0
   -3.1735    0.3174   -0.0062 C   0  0  0  0  0  0  0  0  0  0  0  0
    1.5114    2.8581    0.0313 C   0  0  0  0  0  0  0  0  0  0  0  0
   -3.4287    0.2565    1.4664 C   0  0  0  0  0  0  0  0  0  0  0  0
   -4.0962    0.7064   -0.8972 C   0  0  0  0  0  0  0  0  0  0  0  0
    0.6416    0.4450   -1.5161 H   0  0  0  0  0  0  0  0  0  0  0  0
    0.0665   -3.0011   -0.2580 H   0  0  0  0  0  0  0  0  0  0  0  0
   -0.0255   -1.9587   -1.6678 H   0  0  0  0  0  0  0  0  0  0  0  0
   -0.7547    0.9176    1.1402 H   0  0  0  0  0  0  0  0  0  0  0  0
   -0.9489    1.8786   -0.3126 H   0  0  0  0  0  0  0  0  0  0  0  0
   -1.7829    0.0172   -1.6036 H   0  0  0  0  0  0  0  0  0  0  0  0
    2.3335   -1.3799   -1.6343 H   0  0  0  0  0  0  0  0  0  0  0  0
    2.6120   -2.4621   -0.2814 H   0  0  0  0  0  0  0  0  0  0  0  0
   -2.2378   -2.1903   -0.7332 H   0  0  0  0  0  0  0  0  0  0  0  0
   -1.6807   -1.7732    0.8709 H   0  0  0  0  0  0  0  0  0  0  0  0
    1.2551   -2.2415    1.8354 H   0  0  0  0  0  0  0  0  0  0  0  0
    1.7181   -0.5549    2.0615 H   0  0  0  0  0  0  0  0  0  0  0  0
    0.0243   -0.9979    2.0302 H   0  0  0  0  0  0  0  0  0  0  0  0
    4.3313   -0.5700   -0.7306 H   0  0  0  0  0  0  0  0  0  0  0  0
    3.8395   -0.8447    0.9335 H   0  0  0  0  0  0  0  0  0  0  0  0
    3.8671    1.6401    0.3236 H   0  0  0  0  0  0  0  0  0  0  0  0
    0.8467    3.0621    0.8765 H   0  0  0  0  0  0  0  0  0  0  0  0
    1.0348    3.2104   -0.8891 H   0  0  0  0  0  0  0  0  0  0  0  0
    2.4179    3.4555    0.1777 H   0  0  0  0  0  0  0  0  0  0  0  0
   -3.3304   -0.7613    1.8528 H   0  0  0  0  0  0  0  0  0  0  0  0
   -2.7537    0.9129    2.0217 H   0  0  0  0  0  0  0  0  0  0  0  0
   -4.4478    0.5837    1.7037 H   0  0  0  0  0  0  0  0  0  0  0  0
   -5.0909    1.0007   -0.5784 H   0  0  0  0  0  0  0  0  0  0  0  0
   -3.8911    0.7435   -1.9619 H   0  0  0  0  0  0  0  0  0  0  0  0
  1  2  1  0  0  0  0
  1  3  1  0  0  0  0
  1  6  1  0  0  0  0
  1  9  1  0  0  0  0
  2  4  1  0  0  0  0
  2  8  1  0  0  0  0
  2 16  1  0  0  0  0
  3  7  1  0  0  0  0
  3 17  1  0  0  0  0
  3 18  1  0  0  0  0
  4  5  1  0  0  0  0
  4 19  1  0  0  0  0
  4 20  1  0  0  0  0
  5  7  1  0  0  0  0
  5 12  1  0  0  0  0
  5 21  1  0  0  0  0
  6 10  1  0  0  0  0
  6 22  1  0  0  0  0
  6 23  1  0  0  0  0
  7 24  1  0  0  0  0
  7 25  1  0  0  0  0
  8 11  2  0  0  0  0
  8 13  1  0  0  0  0
  9 26  1  0  0  0  0
  9 27  1  0  0  0  0
  9 28  1  0  0  0  0
 10 11  1  0  0  0  0
 10 29  1  0  0  0  0
 10 30  1  0  0  0  0
 11 31  1  0  0  0  0
 12 14  1  0  0  0  0
 12 15  2  0  0  0  0
 13 32  1  0  0  0  0
 13 33  1  0  0  0  0
 13 34  1  0  0  0  0
 14 35  1  0  0  0  0
 14 36  1  0  0  0  0
 14 37  1  0  0  0  0
 15 38  1  0  0  0  0
 15 39  1  0  0  0  0
M  END
$$$$
