IMPHY011394
     RDKit          3D

 62 61  0  0  0  0  0  0  0  0999 V2000
  -10.5550    1.1056    0.1635 O   0  0  0  0  0  0  0  0  0  0  0  0
   -9.6568    0.9952   -1.8739 O   0  0  0  0  0  0  0  0  0  0  0  0
    0.3154    0.9523    1.0109 C   0  0  0  0  0  0  0  0  0  0  0  0
   -0.3563   -0.2845    0.4093 C   0  0  0  0  0  0  0  0  0  0  0  0
    1.3511    0.6194    2.0908 C   0  0  0  0  0  0  0  0  0  0  0  0
   -1.3998    0.0493   -0.6634 C   0  0  0  0  0  0  0  0  0  0  0  0
    2.5273   -0.2608    1.6531 C   0  0  0  0  0  0  0  0  0  0  0  0
   -2.6512    0.7309   -0.1038 C   0  0  0  0  0  0  0  0  0  0  0  0
    3.3590    0.3517    0.5234 C   0  0  0  0  0  0  0  0  0  0  0  0
   -3.6947    1.0608   -1.1770 C   0  0  0  0  0  0  0  0  0  0  0  0
    4.5422   -0.5238    0.0939 C   0  0  0  0  0  0  0  0  0  0  0  0
   -4.2730   -0.1371   -1.9370 C   0  0  0  0  0  0  0  0  0  0  0  0
    5.6465   -0.6153    1.1499 C   0  0  0  0  0  0  0  0  0  0  0  0
   -4.9170   -1.2240   -1.0705 C   0  0  0  0  0  0  0  0  0  0  0  0
    6.8255   -1.4972    0.7233 C   0  0  0  0  0  0  0  0  0  0  0  0
   -6.0475   -0.7554   -0.1493 C   0  0  0  0  0  0  0  0  0  0  0  0
    7.5745   -1.0548   -0.5376 C   0  0  0  0  0  0  0  0  0  0  0  0
   -7.2356   -0.1546   -0.9024 C   0  0  0  0  0  0  0  0  0  0  0  0
    8.1697    0.3493   -0.4321 C   0  0  0  0  0  0  0  0  0  0  0  0
   -8.3770    0.1937    0.0521 C   0  0  0  0  0  0  0  0  0  0  0  0
    9.0017    0.6924   -1.6584 C   0  0  0  0  0  0  0  0  0  0  0  0
   -9.5499    0.7904   -0.6775 C   0  0  0  0  0  0  0  0  0  0  0  0
  -11.2462    1.4778   -0.4234 H   0  0  0  0  0  0  0  0  0  0  0  0
   -0.4423    1.5943    1.4740 H   0  0  0  0  0  0  0  0  0  0  0  0
    0.7780    1.5486    0.2165 H   0  0  0  0  0  0  0  0  0  0  0  0
   -0.8217   -0.8799    1.2039 H   0  0  0  0  0  0  0  0  0  0  0  0
    0.4043   -0.9190   -0.0596 H   0  0  0  0  0  0  0  0  0  0  0  0
    0.8414    0.1224    2.9259 H   0  0  0  0  0  0  0  0  0  0  0  0
    1.7465    1.5617    2.4906 H   0  0  0  0  0  0  0  0  0  0  0  0
   -1.6840   -0.8911   -1.1489 H   0  0  0  0  0  0  0  0  0  0  0  0
   -0.9453    0.6810   -1.4360 H   0  0  0  0  0  0  0  0  0  0  0  0
    2.1658   -1.2512    1.3548 H   0  0  0  0  0  0  0  0  0  0  0  0
    3.1608   -0.4183    2.5332 H   0  0  0  0  0  0  0  0  0  0  0  0
   -3.0976    0.1052    0.6771 H   0  0  0  0  0  0  0  0  0  0  0  0
   -2.3710    1.6737    0.3791 H   0  0  0  0  0  0  0  0  0  0  0  0
    3.7223    1.3423    0.8223 H   0  0  0  0  0  0  0  0  0  0  0  0
    2.7231    0.4984   -0.3570 H   0  0  0  0  0  0  0  0  0  0  0  0
   -3.2455    1.7463   -1.9069 H   0  0  0  0  0  0  0  0  0  0  0  0
   -4.5126    1.6192   -0.7063 H   0  0  0  0  0  0  0  0  0  0  0  0
    4.9536   -0.0912   -0.8252 H   0  0  0  0  0  0  0  0  0  0  0  0
    4.1845   -1.5288   -0.1601 H   0  0  0  0  0  0  0  0  0  0  0  0
   -5.0099    0.2347   -2.6591 H   0  0  0  0  0  0  0  0  0  0  0  0
   -3.4836   -0.5990   -2.5419 H   0  0  0  0  0  0  0  0  0  0  0  0
    6.0016    0.3893    1.4056 H   0  0  0  0  0  0  0  0  0  0  0  0
    5.2386   -1.0414    2.0733 H   0  0  0  0  0  0  0  0  0  0  0  0
   -5.3045   -2.0072   -1.7343 H   0  0  0  0  0  0  0  0  0  0  0  0
   -4.1451   -1.7055   -0.4586 H   0  0  0  0  0  0  0  0  0  0  0  0
    6.4638   -2.5215    0.5692 H   0  0  0  0  0  0  0  0  0  0  0  0
    7.5378   -1.5458    1.5566 H   0  0  0  0  0  0  0  0  0  0  0  0
   -5.6654   -0.0317    0.5795 H   0  0  0  0  0  0  0  0  0  0  0  0
   -6.3927   -1.6214    0.4294 H   0  0  0  0  0  0  0  0  0  0  0  0
    6.9130   -1.1146   -1.4094 H   0  0  0  0  0  0  0  0  0  0  0  0
    8.3835   -1.7738   -0.7191 H   0  0  0  0  0  0  0  0  0  0  0  0
   -7.5915   -0.8645   -1.6594 H   0  0  0  0  0  0  0  0  0  0  0  0
   -6.9261    0.7505   -1.4376 H   0  0  0  0  0  0  0  0  0  0  0  0
    7.3729    1.0940   -0.3314 H   0  0  0  0  0  0  0  0  0  0  0  0
    8.8001    0.4211    0.4616 H   0  0  0  0  0  0  0  0  0  0  0  0
   -8.7195   -0.7100    0.5682 H   0  0  0  0  0  0  0  0  0  0  0  0
   -8.0304    0.9205    0.7951 H   0  0  0  0  0  0  0  0  0  0  0  0
    8.3929    0.6569   -2.5675 H   0  0  0  0  0  0  0  0  0  0  0  0
    9.8359   -0.0068   -1.7753 H   0  0  0  0  0  0  0  0  0  0  0  0
    9.4153    1.7015   -1.5654 H   0  0  0  0  0  0  0  0  0  0  0  0
  1 22  1  0
  2 22  2  0
  3  4  1  0
  3  5  1  0
  4  6  1  0
  5  7  1  0
  6  8  1  0
  7  9  1  0
  8 10  1  0
  9 11  1  0
 10 12  1  0
 11 13  1  0
 12 14  1  0
 13 15  1  0
 14 16  1  0
 15 17  1  0
 16 18  1  0
 17 19  1  0
 18 20  1  0
 19 21  1  0
 20 22  1  0
  1 23  1  0
  3 24  1  0
  3 25  1  0
  4 26  1  0
  4 27  1  0
  5 28  1  0
  5 29  1  0
  6 30  1  0
  6 31  1  0
  7 32  1  0
  7 33  1  0
  8 34  1  0
  8 35  1  0
  9 36  1  0
  9 37  1  0
 10 38  1  0
 10 39  1  0
 11 40  1  0
 11 41  1  0
 12 42  1  0
 12 43  1  0
 13 44  1  0
 13 45  1  0
 14 46  1  0
 14 47  1  0
 15 48  1  0
 15 49  1  0
 16 50  1  0
 16 51  1  0
 17 52  1  0
 17 53  1  0
 18 54  1  0
 18 55  1  0
 19 56  1  0
 19 57  1  0
 20 58  1  0
 20 59  1  0
 21 60  1  0
 21 61  1  0
 21 62  1  0
M  END
$$$$
