IMPHY002539
     RDKit          3D

128132  0  0  1  0  0  0  0  0999 V2000
    1.2388    0.9940   -3.6094 O   0  0  0  0  0  0  0  0  0  0  0  0
    2.1557   -1.0965   -3.3454 O   0  0  0  0  0  0  0  0  0  0  0  0
   -4.9940    0.9846   -0.9491 C   0  0  2  0  0  0  0  0  0  0  0  0
   -3.5846    0.5132   -0.4177 C   0  0  1  0  0  0  0  0  0  0  0  0
   -2.2932    1.1899   -1.0688 C   0  0  2  0  0  0  0  0  0  0  0  0
   -6.1314   -0.0702   -0.4212 C   0  0  1  0  0  0  0  0  0  0  0  0
   -2.4478    1.0787   -2.6301 C   0  0  1  0  0  0  0  0  0  0  0  0
   -4.9701    1.0528   -2.5018 C   0  0  0  0  0  0  0  0  0  0  0  0
   -5.9896   -0.3076    1.0937 C   0  0  0  0  0  0  0  0  0  0  0  0
   -3.7501    1.7594   -3.0978 C   0  0  0  0  0  0  0  0  0  0  0  0
   -1.1711    1.4259   -3.4805 C   0  0  0  0  0  0  0  0  0  0  0  0
   -7.1732   -0.8329    1.9137 C   0  0  1  0  0  0  0  0  0  0  0  0
   -8.5773   -0.3321    1.4567 C   0  0  1  0  0  0  0  0  0  0  0  0
   -3.5681    0.4576    1.1248 C   0  0  0  0  0  0  0  0  0  0  0  0
   -7.5589    0.4551   -0.7576 C   0  0  0  0  0  0  0  0  0  0  0  0
   -1.0394    0.3629   -0.6503 C   0  0  0  0  0  0  0  0  0  0  0  0
   -8.6912   -0.3188   -0.0841 C   0  0  0  0  0  0  0  0  0  0  0  0
   -5.3281    2.4159   -0.4308 C   0  0  0  0  0  0  0  0  0  0  0  0
    0.0258    0.5763   -2.9470 C   0  0  2  0  0  0  0  0  0  0  0  0
   -4.8330   -0.0578    1.7407 C   0  0  0  0  0  0  0  0  0  0  0  0
   -2.0700    2.6443   -0.5826 C   0  0  0  0  0  0  0  0  0  0  0  0
    0.2268    0.6981   -1.4359 C   0  0  0  0  0  0  0  0  0  0  0  0
   -5.9809   -1.4604   -1.1093 C   0  0  0  0  0  0  0  0  0  0  0  0
   -7.1573   -2.3680    2.0650 C   0  0  0  0  0  0  0  0  0  0  0  0
   -9.7092   -1.2499    2.0102 C   0  0  0  0  0  0  0  0  0  0  0  0
   -8.1111   -2.8478    3.1941 C   0  0  0  0  0  0  0  0  0  0  0  0
   -9.3329   -1.9052    3.3385 C   0  0  0  0  0  0  0  0  0  0  0  0
   -0.8316    2.9300   -3.5174 C   0  0  0  0  0  0  0  0  0  0  0  0
   -1.3976    1.0053   -4.9607 C   0  0  0  0  0  0  0  0  0  0  0  0
   -8.7986    1.0990    2.0066 C   0  0  0  0  0  0  0  0  0  0  0  0
   -8.5846   -4.2773    2.8665 C   0  0  0  0  0  0  0  0  0  0  0  0
   -7.3579   -2.8949    4.5375 C   0  0  0  0  0  0  0  0  0  0  0  0
    2.2260    0.0653   -3.7216 C   0  0  0  0  0  0  0  0  0  0  0  0
    3.4345    0.6570   -4.4038 C   0  0  0  0  0  0  0  0  0  0  0  0
    3.9972    1.8753   -3.6741 C   0  0  0  0  0  0  0  0  0  0  0  0
    4.5286    1.5301   -2.2791 C   0  0  0  0  0  0  0  0  0  0  0  0
    5.1299    2.7613   -1.5972 C   0  0  0  0  0  0  0  0  0  0  0  0
    5.5588    2.5063   -0.1494 C   0  0  0  0  0  0  0  0  0  0  0  0
    6.7103    1.5051   -0.0223 C   0  0  0  0  0  0  0  0  0  0  0  0
    7.1747    1.3821    1.4315 C   0  0  0  0  0  0  0  0  0  0  0  0
    8.2393    0.3005    1.6441 C   0  0  0  0  0  0  0  0  0  0  0  0
    9.5756    0.6235    0.9705 C   0  0  0  0  0  0  0  0  0  0  0  0
   10.6403   -0.4588    1.1856 C   0  0  0  0  0  0  0  0  0  0  0  0
   11.0882   -0.5883    2.6439 C   0  0  0  0  0  0  0  0  0  0  0  0
   12.3141   -1.4911    2.8253 C   0  0  0  0  0  0  0  0  0  0  0  0
   12.0413   -2.9587    2.4848 C   0  0  0  0  0  0  0  0  0  0  0  0
   13.2641   -3.8607    2.6732 C   0  0  0  0  0  0  0  0  0  0  0  0
   13.6987   -4.0033    4.1237 C   0  0  0  0  0  0  0  0  0  0  0  0
   -3.4957   -0.5349   -0.7328 H   0  0  0  0  0  0  0  0  0  0  0  0
   -2.6036    0.0039   -2.8250 H   0  0  0  0  0  0  0  0  0  0  0  0
   -5.8780    1.5405   -2.8768 H   0  0  0  0  0  0  0  0  0  0  0  0
   -4.9708    0.0469   -2.9305 H   0  0  0  0  0  0  0  0  0  0  0  0
   -3.8497    1.6973   -4.1857 H   0  0  0  0  0  0  0  0  0  0  0  0
   -3.7697    2.8252   -2.8569 H   0  0  0  0  0  0  0  0  0  0  0  0
   -7.0255   -0.4380    2.9311 H   0  0  0  0  0  0  0  0  0  0  0  0
   -2.7506   -0.1931    1.4556 H   0  0  0  0  0  0  0  0  0  0  0  0
   -3.3840    1.4407    1.5648 H   0  0  0  0  0  0  0  0  0  0  0  0
   -7.7191    0.4249   -1.8427 H   0  0  0  0  0  0  0  0  0  0  0  0
   -7.6801    1.5017   -0.4717 H   0  0  0  0  0  0  0  0  0  0  0  0
   -0.8293    0.5051    0.4168 H   0  0  0  0  0  0  0  0  0  0  0  0
   -1.2434   -0.7078   -0.7843 H   0  0  0  0  0  0  0  0  0  0  0  0
   -8.7144   -1.3424   -0.4756 H   0  0  0  0  0  0  0  0  0  0  0  0
   -9.6483    0.1308   -0.3802 H   0  0  0  0  0  0  0  0  0  0  0  0
   -6.2036    2.8346   -0.9381 H   0  0  0  0  0  0  0  0  0  0  0  0
   -5.5292    2.4388    0.6440 H   0  0  0  0  0  0  0  0  0  0  0  0
   -4.5352    3.1342   -0.6218 H   0  0  0  0  0  0  0  0  0  0  0  0
   -0.1765   -0.4773   -3.1875 H   0  0  0  0  0  0  0  0  0  0  0  0
   -4.7731   -0.2315    2.8144 H   0  0  0  0  0  0  0  0  0  0  0  0
   -1.0146    2.9258   -0.5681 H   0  0  0  0  0  0  0  0  0  0  0  0
   -2.5670    3.3871   -1.2084 H   0  0  0  0  0  0  0  0  0  0  0  0
   -2.4074    2.8047    0.4426 H   0  0  0  0  0  0  0  0  0  0  0  0
    1.0256    0.0161   -1.1180 H   0  0  0  0  0  0  0  0  0  0  0  0
    0.6060    1.6937   -1.1824 H   0  0  0  0  0  0  0  0  0  0  0  0
   -6.1838   -1.4107   -2.1832 H   0  0  0  0  0  0  0  0  0  0  0  0
   -6.6889   -2.1962   -0.7233 H   0  0  0  0  0  0  0  0  0  0  0  0
   -4.9899   -1.8999   -0.9704 H   0  0  0  0  0  0  0  0  0  0  0  0
   -6.1394   -2.7307    2.2578 H   0  0  0  0  0  0  0  0  0  0  0  0
   -7.4647   -2.8283    1.1198 H   0  0  0  0  0  0  0  0  0  0  0  0
   -9.9467   -2.0448    1.2917 H   0  0  0  0  0  0  0  0  0  0  0  0
  -10.6367   -0.6770    2.1348 H   0  0  0  0  0  0  0  0  0  0  0  0
  -10.1960   -2.4567    3.7317 H   0  0  0  0  0  0  0  0  0  0  0  0
   -9.1247   -1.1156    4.0717 H   0  0  0  0  0  0  0  0  0  0  0  0
   -1.7085    3.5346   -3.7694 H   0  0  0  0  0  0  0  0  0  0  0  0
   -0.4252    3.2978   -2.5752 H   0  0  0  0  0  0  0  0  0  0  0  0
   -0.0724    3.1451   -4.2794 H   0  0  0  0  0  0  0  0  0  0  0  0
   -2.1345    1.6424   -5.4597 H   0  0  0  0  0  0  0  0  0  0  0  0
   -0.4735    1.0815   -5.5454 H   0  0  0  0  0  0  0  0  0  0  0  0
   -1.7438   -0.0319   -5.0303 H   0  0  0  0  0  0  0  0  0  0  0  0
   -9.7342    1.5269    1.6293 H   0  0  0  0  0  0  0  0  0  0  0  0
   -7.9863    1.7788    1.7310 H   0  0  0  0  0  0  0  0  0  0  0  0
   -8.8568    1.0973    3.1008 H   0  0  0  0  0  0  0  0  0  0  0  0
   -9.1629   -4.3034    1.9364 H   0  0  0  0  0  0  0  0  0  0  0  0
   -9.2214   -4.6774    3.6636 H   0  0  0  0  0  0  0  0  0  0  0  0
   -7.7330   -4.9571    2.7487 H   0  0  0  0  0  0  0  0  0  0  0  0
   -6.9641   -1.9103    4.8115 H   0  0  0  0  0  0  0  0  0  0  0  0
   -8.0178   -3.2264    5.3474 H   0  0  0  0  0  0  0  0  0  0  0  0
   -6.5112   -3.5892    4.4936 H   0  0  0  0  0  0  0  0  0  0  0  0
    4.2019   -0.1219   -4.4807 H   0  0  0  0  0  0  0  0  0  0  0  0
    3.1459    0.9241   -5.4267 H   0  0  0  0  0  0  0  0  0  0  0  0
    3.2300    2.6546   -3.5916 H   0  0  0  0  0  0  0  0  0  0  0  0
    4.8119    2.2952   -4.2766 H   0  0  0  0  0  0  0  0  0  0  0  0
    3.7175    1.1326   -1.6580 H   0  0  0  0  0  0  0  0  0  0  0  0
    5.2859    0.7435   -2.3698 H   0  0  0  0  0  0  0  0  0  0  0  0
    5.9876    3.1239   -2.1767 H   0  0  0  0  0  0  0  0  0  0  0  0
    4.3866    3.5684   -1.5950 H   0  0  0  0  0  0  0  0  0  0  0  0
    4.6972    2.1557    0.4319 H   0  0  0  0  0  0  0  0  0  0  0  0
    5.8668    3.4636    0.2892 H   0  0  0  0  0  0  0  0  0  0  0  0
    7.5410    1.8335   -0.6563 H   0  0  0  0  0  0  0  0  0  0  0  0
    6.3922    0.5201   -0.3810 H   0  0  0  0  0  0  0  0  0  0  0  0
    6.3105    1.1370    2.0616 H   0  0  0  0  0  0  0  0  0  0  0  0
    7.5571    2.3483    1.7825 H   0  0  0  0  0  0  0  0  0  0  0  0
    8.3903    0.1938    2.7242 H   0  0  0  0  0  0  0  0  0  0  0  0
    7.8628   -0.6628    1.2797 H   0  0  0  0  0  0  0  0  0  0  0  0
    9.9518    1.5872    1.3344 H   0  0  0  0  0  0  0  0  0  0  0  0
    9.4262    0.7292   -0.1098 H   0  0  0  0  0  0  0  0  0  0  0  0
   11.5097   -0.2089    0.5651 H   0  0  0  0  0  0  0  0  0  0  0  0
   10.2540   -1.4172    0.8210 H   0  0  0  0  0  0  0  0  0  0  0  0
   10.2676   -0.9726    3.2600 H   0  0  0  0  0  0  0  0  0  0  0  0
   11.3383    0.4071    3.0313 H   0  0  0  0  0  0  0  0  0  0  0  0
   12.6327   -1.4103    3.8707 H   0  0  0  0  0  0  0  0  0  0  0  0
   13.1418   -1.1153    2.2118 H   0  0  0  0  0  0  0  0  0  0  0  0
   11.2106   -3.3331    3.0951 H   0  0  0  0  0  0  0  0  0  0  0  0
   11.7279   -3.0399    1.4379 H   0  0  0  0  0  0  0  0  0  0  0  0
   14.1022   -3.4838    2.0756 H   0  0  0  0  0  0  0  0  0  0  0  0
   13.0215   -4.8573    2.2851 H   0  0  0  0  0  0  0  0  0  0  0  0
   12.8693   -4.3444    4.7511 H   0  0  0  0  0  0  0  0  0  0  0  0
   14.5069   -4.7377    4.2024 H   0  0  0  0  0  0  0  0  0  0  0  0
   14.0724   -3.0576    4.5265 H   0  0  0  0  0  0  0  0  0  0  0  0
 19  1  1  0
  1 33  1  0
  2 33  2  0
  3  4  1  0
  3  6  1  0
  3  8  1  0
  3 18  1  1
  4  5  1  0
  4 14  1  0
  5  7  1  0
  5 16  1  0
  5 21  1  6
  6  9  1  0
  6 15  1  0
  6 23  1  6
  7 10  1  0
  7 11  1  0
  8 10  1  0
  9 12  1  0
  9 20  2  0
 11 19  1  0
 11 28  1  0
 11 29  1  0
 12 13  1  0
 12 24  1  0
 13 17  1  0
 13 25  1  0
 13 30  1  1
 14 20  1  0
 15 17  1  0
 16 22  1  0
 19 22  1  0
 24 26  1  0
 25 27  1  0
 26 27  1  0
 26 31  1  0
 26 32  1  0
 33 34  1  0
 34 35  1  0
 35 36  1  0
 36 37  1  0
 37 38  1  0
 38 39  1  0
 39 40  1  0
 40 41  1  0
 41 42  1  0
 42 43  1  0
 43 44  1  0
 44 45  1  0
 45 46  1  0
 46 47  1  0
 47 48  1  0
  4 49  1  6
  7 50  1  1
  8 51  1  0
  8 52  1  0
 10 53  1  0
 10 54  1  0
 12 55  1  1
 14 56  1  0
 14 57  1  0
 15 58  1  0
 15 59  1  0
 16 60  1  0
 16 61  1  0
 17 62  1  0
 17 63  1  0
 18 64  1  0
 18 65  1  0
 18 66  1  0
 19 67  1  1
 20 68  1  0
 21 69  1  0
 21 70  1  0
 21 71  1  0
 22 72  1  0
 22 73  1  0
 23 74  1  0
 23 75  1  0
 23 76  1  0
 24 77  1  0
 24 78  1  0
 25 79  1  0
 25 80  1  0
 27 81  1  0
 27 82  1  0
 28 83  1  0
 28 84  1  0
 28 85  1  0
 29 86  1  0
 29 87  1  0
 29 88  1  0
 30 89  1  0
 30 90  1  0
 30 91  1  0
 31 92  1  0
 31 93  1  0
 31 94  1  0
 32 95  1  0
 32 96  1  0
 32 97  1  0
 34 98  1  0
 34 99  1  0
 35100  1  0
 35101  1  0
 36102  1  0
 36103  1  0
 37104  1  0
 37105  1  0
 38106  1  0
 38107  1  0
 39108  1  0
 39109  1  0
 40110  1  0
 40111  1  0
 41112  1  0
 41113  1  0
 42114  1  0
 42115  1  0
 43116  1  0
 43117  1  0
 44118  1  0
 44119  1  0
 45120  1  0
 45121  1  0
 46122  1  0
 46123  1  0
 47124  1  0
 47125  1  0
 48126  1  0
 48127  1  0
 48128  1  0
M  END
$$$$
