IMPHY004135
  -OEChem-01202214463D

 39 39  0     1  0  0  0  0  0999 V2000
   -1.2721   -0.7820    0.3496 C   0  0  2  0  0  0  0  0  0  0  0  0
   -0.1572   -1.7377    0.8614 C   0  0  0  0  0  0  0  0  0  0  0  0
   -0.6846    0.6104    0.0765 C   0  0  0  0  0  0  0  0  0  0  0  0
    1.1122   -1.6643    0.0111 C   0  0  0  0  0  0  0  0  0  0  0  0
   -1.6295    1.7829   -0.0072 C   0  0  0  0  0  0  0  0  0  0  0  0
    1.6281   -0.2519   -0.0644 C   0  0  0  0  0  0  0  0  0  0  0  0
    0.6382    0.8094   -0.0919 C   0  0  0  0  0  0  0  0  0  0  0  0
   -2.3746   -0.7425    1.4260 C   0  0  0  0  0  0  0  0  0  0  0  0
   -1.8765   -1.3469   -0.9167 C   0  0  0  0  0  0  0  0  0  0  0  0
   -1.2993    2.7956    1.0804 C   0  0  0  0  0  0  0  0  0  0  0  0
   -1.5688    2.4185   -1.3902 C   0  0  0  0  0  0  0  0  0  0  0  0
    2.9423    0.0159   -0.0995 C   0  0  0  0  0  0  0  0  0  0  0  0
   -2.9119   -2.1925   -0.9838 C   0  0  0  0  0  0  0  0  0  0  0  0
    3.9510   -1.1015   -0.0691 C   0  0  0  0  0  0  0  0  0  0  0  0
    3.5028    1.3864   -0.1822 C   0  0  0  0  0  0  0  0  0  0  0  0
   -0.5147   -2.7760    0.8827 H   0  0  0  0  0  0  0  0  0  0  0  0
    0.0998   -1.4822    1.8999 H   0  0  0  0  0  0  0  0  0  0  0  0
    0.9110   -2.0330   -1.0021 H   0  0  0  0  0  0  0  0  0  0  0  0
    1.8291   -2.3533    0.4691 H   0  0  0  0  0  0  0  0  0  0  0  0
   -2.6651    1.4641    0.1378 H   0  0  0  0  0  0  0  0  0  0  0  0
    0.9861    1.8179   -0.2858 H   0  0  0  0  0  0  0  0  0  0  0  0
   -2.0501   -0.1477    2.2893 H   0  0  0  0  0  0  0  0  0  0  0  0
   -3.3197   -0.3130    1.0747 H   0  0  0  0  0  0  0  0  0  0  0  0
   -2.5994   -1.7425    1.8182 H   0  0  0  0  0  0  0  0  0  0  0  0
   -1.3968   -1.0829   -1.8583 H   0  0  0  0  0  0  0  0  0  0  0  0
   -0.3269    3.2777    0.9323 H   0  0  0  0  0  0  0  0  0  0  0  0
   -1.3001    2.3311    2.0728 H   0  0  0  0  0  0  0  0  0  0  0  0
   -2.0515    3.5929    1.0935 H   0  0  0  0  0  0  0  0  0  0  0  0
   -1.7685    1.6818   -2.1764 H   0  0  0  0  0  0  0  0  0  0  0  0
   -0.6003    2.8847   -1.6011 H   0  0  0  0  0  0  0  0  0  0  0  0
   -2.3279    3.2041   -1.4787 H   0  0  0  0  0  0  0  0  0  0  0  0
   -3.2473   -2.5541   -1.9508 H   0  0  0  0  0  0  0  0  0  0  0  0
   -3.4430   -2.5602   -0.1150 H   0  0  0  0  0  0  0  0  0  0  0  0
    4.8803   -0.7887   -0.5600 H   0  0  0  0  0  0  0  0  0  0  0  0
    4.1943   -1.3694    0.9638 H   0  0  0  0  0  0  0  0  0  0  0  0
    3.6267   -1.9931   -0.6137 H   0  0  0  0  0  0  0  0  0  0  0  0
    4.5269    1.4101    0.2091 H   0  0  0  0  0  0  0  0  0  0  0  0
    3.5410    1.7271   -1.2218 H   0  0  0  0  0  0  0  0  0  0  0  0
    2.9541    2.1174    0.4191 H   0  0  0  0  0  0  0  0  0  0  0  0
  1  2  1  0  0  0  0
  1  3  1  0  0  0  0
  1  8  1  0  0  0  0
  1  9  1  0  0  0  0
  2  4  1  0  0  0  0
  2 16  1  0  0  0  0
  2 17  1  0  0  0  0
  3  5  1  0  0  0  0
  3  7  2  0  0  0  0
  4  6  1  0  0  0  0
  4 18  1  0  0  0  0
  4 19  1  0  0  0  0
  5 10  1  0  0  0  0
  5 11  1  0  0  0  0
  5 20  1  0  0  0  0
  6  7  1  0  0  0  0
  6 12  2  0  0  0  0
  7 21  1  0  0  0  0
  8 22  1  0  0  0  0
  8 23  1  0  0  0  0
  8 24  1  0  0  0  0
  9 13  2  0  0  0  0
  9 25  1  0  0  0  0
 10 26  1  0  0  0  0
 10 27  1  0  0  0  0
 10 28  1  0  0  0  0
 11 29  1  0  0  0  0
 11 30  1  0  0  0  0
 11 31  1  0  0  0  0
 12 14  1  0  0  0  0
 12 15  1  0  0  0  0
 13 32  1  0  0  0  0
 13 33  1  0  0  0  0
 14 34  1  0  0  0  0
 14 35  1  0  0  0  0
 14 36  1  0  0  0  0
 15 37  1  0  0  0  0
 15 38  1  0  0  0  0
 15 39  1  0  0  0  0
M  END
$$$$
