IMPHY003605
  -OEChem-01202214363D

 84 88  0     1  0  0  0  0  0999 V2000
   -7.6629   -0.5832    0.6099 O   0  0  0  0  0  0  0  0  0  0  0  0
   -1.9121   -0.5427   -0.0877 C   0  0  1  0  0  0  0  0  0  0  0  0
   -3.4372   -0.5113    0.2140 C   0  0  2  0  0  0  0  0  0  0  0  0
   -2.9343   -0.9964   -1.1189 C   0  0  0  0  0  0  0  0  0  0  0  0
   -1.1909    0.7828   -0.4487 C   0  0  2  0  0  0  0  0  0  0  0  0
   -4.1407    0.8472    0.3580 C   0  0  1  0  0  0  0  0  0  0  0  0
    0.3136    0.7610   -0.0741 C   0  0  1  0  0  0  0  0  0  0  0  0
   -1.0848   -1.6445    0.5906 C   0  0  0  0  0  0  0  0  0  0  0  0
    0.9483   -0.5768   -0.5776 C   0  0  2  0  0  0  0  0  0  0  0  0
   -4.0624   -1.5597    1.1202 C   0  0  0  0  0  0  0  0  0  0  0  0
   -1.9403    2.0129    0.0799 C   0  0  0  0  0  0  0  0  0  0  0  0
   -3.4020    1.9870   -0.3576 C   0  0  0  0  0  0  0  0  0  0  0  0
    0.4216   -1.7238    0.2840 C   0  0  0  0  0  0  0  0  0  0  0  0
   -5.6745    0.7432    0.0365 C   0  0  0  0  0  0  0  0  0  0  0  0
    2.4649   -0.2821   -0.4227 C   0  0  2  0  0  0  0  0  0  0  0  0
    1.1805    1.8002   -0.8161 C   0  0  0  0  0  0  0  0  0  0  0  0
   -5.5506   -1.7102    0.8275 C   0  0  0  0  0  0  0  0  0  0  0  0
   -6.2896   -0.3750    0.9354 C   0  0  2  0  0  0  0  0  0  0  0  0
    2.5976    1.1961   -0.8527 C   0  0  0  0  0  0  0  0  0  0  0  0
    0.4977    1.0252    1.4527 C   0  0  0  0  0  0  0  0  0  0  0  0
    0.6403   -0.9188   -2.0666 C   0  0  0  0  0  0  0  0  0  0  0  0
    3.4336   -1.1964   -1.1643 C   0  0  1  0  0  0  0  0  0  0  0  0
   -6.3854    2.0744    0.3829 C   0  0  0  0  0  0  0  0  0  0  0  0
   -5.9504    0.4647   -1.4572 C   0  0  0  0  0  0  0  0  0  0  0  0
    4.9092   -0.8255   -0.9122 C   0  0  0  0  0  0  0  0  0  0  0  0
    3.1947   -2.6535   -0.7519 C   0  0  0  0  0  0  0  0  0  0  0  0
    5.3632   -0.8515    0.5552 C   0  0  0  0  0  0  0  0  0  0  0  0
    6.8275   -0.4316    0.8069 C   0  0  2  0  0  0  0  0  0  0  0  0
    7.1462   -0.5711    2.3012 C   0  0  0  0  0  0  0  0  0  0  0  0
    7.1630    0.9666    0.3062 C   0  0  0  0  0  0  0  0  0  0  0  0
    6.3985    2.1346    0.8668 C   0  0  0  0  0  0  0  0  0  0  0  0
    8.1177    1.1581   -0.6195 C   0  0  0  0  0  0  0  0  0  0  0  0
   -3.1009   -0.3840   -1.9977 H   0  0  0  0  0  0  0  0  0  0  0  0
   -3.0034   -2.0552   -1.3471 H   0  0  0  0  0  0  0  0  0  0  0  0
   -1.2374    0.8745   -1.5433 H   0  0  0  0  0  0  0  0  0  0  0  0
   -4.0729    1.0896    1.4308 H   0  0  0  0  0  0  0  0  0  0  0  0
   -1.5086   -2.6294    0.3574 H   0  0  0  0  0  0  0  0  0  0  0  0
   -1.2084   -1.5317    1.6752 H   0  0  0  0  0  0  0  0  0  0  0  0
   -3.9137   -1.2649    2.1662 H   0  0  0  0  0  0  0  0  0  0  0  0
   -3.5950   -2.5422    0.9996 H   0  0  0  0  0  0  0  0  0  0  0  0
   -1.4678    2.9258   -0.3012 H   0  0  0  0  0  0  0  0  0  0  0  0
   -1.9078    2.0628    1.1739 H   0  0  0  0  0  0  0  0  0  0  0  0
   -3.8499    2.9512   -0.0947 H   0  0  0  0  0  0  0  0  0  0  0  0
   -3.4618    1.8925   -1.4467 H   0  0  0  0  0  0  0  0  0  0  0  0
    0.9592   -1.7708    1.2399 H   0  0  0  0  0  0  0  0  0  0  0  0
    0.5983   -2.6948   -0.1883 H   0  0  0  0  0  0  0  0  0  0  0  0
    2.7013   -0.3473    0.6442 H   0  0  0  0  0  0  0  0  0  0  0  0
    1.1813    2.7837   -0.3336 H   0  0  0  0  0  0  0  0  0  0  0  0
    0.8237    1.9573   -1.8409 H   0  0  0  0  0  0  0  0  0  0  0  0
   -5.7010   -2.1438   -0.1688 H   0  0  0  0  0  0  0  0  0  0  0  0
   -5.9917   -2.4311    1.5270 H   0  0  0  0  0  0  0  0  0  0  0  0
   -6.2584   -0.0450    1.9823 H   0  0  0  0  0  0  0  0  0  0  0  0
    3.0142    1.3061   -1.8601 H   0  0  0  0  0  0  0  0  0  0  0  0
    3.2543    1.7341   -0.1632 H   0  0  0  0  0  0  0  0  0  0  0  0
    1.5251    0.8834    1.7972 H   0  0  0  0  0  0  0  0  0  0  0  0
    0.2478    2.0632    1.7017 H   0  0  0  0  0  0  0  0  0  0  0  0
   -0.1399    0.3892    2.0709 H   0  0  0  0  0  0  0  0  0  0  0  0
   -0.4258   -1.0604   -2.2554 H   0  0  0  0  0  0  0  0  0  0  0  0
    0.9839   -0.1360   -2.7502 H   0  0  0  0  0  0  0  0  0  0  0  0
    1.1060   -1.8512   -2.3929 H   0  0  0  0  0  0  0  0  0  0  0  0
    3.2819   -1.1199   -2.2480 H   0  0  0  0  0  0  0  0  0  0  0  0
   -7.4728    1.9879    0.2777 H   0  0  0  0  0  0  0  0  0  0  0  0
   -6.1762    2.3765    1.4150 H   0  0  0  0  0  0  0  0  0  0  0  0
   -6.0689    2.8883   -0.2777 H   0  0  0  0  0  0  0  0  0  0  0  0
   -7.0266    0.4448   -1.6650 H   0  0  0  0  0  0  0  0  0  0  0  0
   -5.5222    1.2422   -2.0976 H   0  0  0  0  0  0  0  0  0  0  0  0
   -5.5454   -0.4961   -1.7842 H   0  0  0  0  0  0  0  0  0  0  0  0
   -8.0108   -1.2574    1.2182 H   0  0  0  0  0  0  0  0  0  0  0  0
    5.5512   -1.5061   -1.4870 H   0  0  0  0  0  0  0  0  0  0  0  0
    5.0920    0.1708   -1.3307 H   0  0  0  0  0  0  0  0  0  0  0  0
    2.3393   -3.1018   -1.2574 H   0  0  0  0  0  0  0  0  0  0  0  0
    4.0505   -3.2751   -1.0427 H   0  0  0  0  0  0  0  0  0  0  0  0
    3.0731   -2.7660    0.3302 H   0  0  0  0  0  0  0  0  0  0  0  0
    5.2287   -1.8679    0.9461 H   0  0  0  0  0  0  0  0  0  0  0  0
    4.7167   -0.2070    1.1597 H   0  0  0  0  0  0  0  0  0  0  0  0
    7.4628   -1.1574    0.2800 H   0  0  0  0  0  0  0  0  0  0  0  0
    6.4833    0.0430    2.9201 H   0  0  0  0  0  0  0  0  0  0  0  0
    7.0287   -1.6117    2.6233 H   0  0  0  0  0  0  0  0  0  0  0  0
    8.1797   -0.2745    2.5120 H   0  0  0  0  0  0  0  0  0  0  0  0
    6.7038    3.0817    0.4085 H   0  0  0  0  0  0  0  0  0  0  0  0
    6.5680    2.2260    1.9438 H   0  0  0  0  0  0  0  0  0  0  0  0
    5.3269    2.0223    0.6920 H   0  0  0  0  0  0  0  0  0  0  0  0
    8.6772    0.3271   -1.0359 H   0  0  0  0  0  0  0  0  0  0  0  0
    8.3626    2.1505   -0.9835 H   0  0  0  0  0  0  0  0  0  0  0  0
  1 18  1  0  0  0  0
  1 68  1  0  0  0  0
  2  3  1  0  0  0  0
  2  4  1  0  0  0  0
  2  5  1  0  0  0  0
  2  8  1  0  0  0  0
  3  4  1  0  0  0  0
  3  6  1  0  0  0  0
  3 10  1  0  0  0  0
  4 33  1  0  0  0  0
  4 34  1  0  0  0  0
  5  7  1  0  0  0  0
  5 11  1  0  0  0  0
  5 35  1  0  0  0  0
  6 12  1  0  0  0  0
  6 14  1  0  0  0  0
  6 36  1  0  0  0  0
  7  9  1  0  0  0  0
  7 16  1  0  0  0  0
  7 20  1  0  0  0  0
  8 13  1  0  0  0  0
  8 37  1  0  0  0  0
  8 38  1  0  0  0  0
  9 13  1  0  0  0  0
  9 15  1  0  0  0  0
  9 21  1  0  0  0  0
 10 17  1  0  0  0  0
 10 39  1  0  0  0  0
 10 40  1  0  0  0  0
 11 12  1  0  0  0  0
 11 41  1  0  0  0  0
 11 42  1  0  0  0  0
 12 43  1  0  0  0  0
 12 44  1  0  0  0  0
 13 45  1  0  0  0  0
 13 46  1  0  0  0  0
 14 18  1  0  0  0  0
 14 23  1  0  0  0  0
 14 24  1  0  0  0  0
 15 19  1  0  0  0  0
 15 22  1  0  0  0  0
 15 47  1  0  0  0  0
 16 19  1  0  0  0  0
 16 48  1  0  0  0  0
 16 49  1  0  0  0  0
 17 18  1  0  0  0  0
 17 50  1  0  0  0  0
 17 51  1  0  0  0  0
 18 52  1  0  0  0  0
 19 53  1  0  0  0  0
 19 54  1  0  0  0  0
 20 55  1  0  0  0  0
 20 56  1  0  0  0  0
 20 57  1  0  0  0  0
 21 58  1  0  0  0  0
 21 59  1  0  0  0  0
 21 60  1  0  0  0  0
 22 25  1  0  0  0  0
 22 26  1  0  0  0  0
 22 61  1  0  0  0  0
 23 62  1  0  0  0  0
 23 63  1  0  0  0  0
 23 64  1  0  0  0  0
 24 65  1  0  0  0  0
 24 66  1  0  0  0  0
 24 67  1  0  0  0  0
 25 27  1  0  0  0  0
 25 69  1  0  0  0  0
 25 70  1  0  0  0  0
 26 71  1  0  0  0  0
 26 72  1  0  0  0  0
 26 73  1  0  0  0  0
 27 28  1  0  0  0  0
 27 74  1  0  0  0  0
 27 75  1  0  0  0  0
 28 29  1  0  0  0  0
 28 30  1  0  0  0  0
 28 76  1  0  0  0  0
 29 77  1  0  0  0  0
 29 78  1  0  0  0  0
 29 79  1  0  0  0  0
 30 31  1  0  0  0  0
 30 32  2  0  0  0  0
 31 80  1  0  0  0  0
 31 81  1  0  0  0  0
 31 82  1  0  0  0  0
 32 83  1  0  0  0  0
 32 84  1  0  0  0  0
M  END
$$$$
