IMPHY012600
     RDKit          3D

 40 43  0  0  1  0  0  0  0  0999 V2000
   -0.4431   -2.8177    0.1327 O   0  0  0  0  0  0  0  0  0  0  0  0
    0.8464   -0.7042   -0.2353 C   0  0  0  0  0  0  0  0  0  0  0  0
    0.7768    0.7718    0.1869 C   0  0  0  0  0  0  0  0  0  0  0  0
    0.1196   -1.6458    0.7354 C   0  0  0  0  0  0  0  0  0  0  0  0
   -1.2505    0.0810   -0.9935 C   0  0  0  0  0  0  0  0  0  0  0  0
   -0.7057    1.1768    0.0325 C   0  0  0  0  0  0  0  0  0  0  0  0
    0.0614   -0.5821   -1.5416 C   0  0  0  0  0  0  0  0  0  0  0  0
   -1.3741   -1.8399    0.6289 C   0  0  0  0  0  0  0  0  0  0  0  0
   -2.1201   -1.0817   -0.4367 C   0  0  0  0  0  0  0  0  0  0  0  0
    2.3558   -0.9724   -0.1556 C   0  0  0  0  0  0  0  0  0  0  0  0
    1.6179    0.8186    1.4416 C   0  0  0  0  0  0  0  0  0  0  0  0
    2.8120   -0.0888    1.0523 C   0  0  0  0  0  0  0  0  0  0  0  0
   -0.7768    2.5589   -0.6604 C   0  0  0  0  0  0  0  0  0  0  0  0
   -1.4154    1.3291    1.3787 C   0  0  0  0  0  0  0  0  0  0  0  0
   -3.5186   -0.6667    0.0119 C   0  0  0  0  0  0  0  0  0  0  0  0
    3.1352   -0.6460   -1.4267 C   0  0  0  0  0  0  0  0  0  0  0  0
    1.3400    1.3738   -0.5462 H   0  0  0  0  0  0  0  0  0  0  0  0
    0.5843   -1.7639    1.7049 H   0  0  0  0  0  0  0  0  0  0  0  0
   -1.7929    0.5515   -1.8229 H   0  0  0  0  0  0  0  0  0  0  0  0
   -0.1138   -1.5385   -2.0446 H   0  0  0  0  0  0  0  0  0  0  0  0
    0.5454    0.0842   -2.2661 H   0  0  0  0  0  0  0  0  0  0  0  0
   -1.9493   -2.1064    1.5038 H   0  0  0  0  0  0  0  0  0  0  0  0
   -2.2864   -1.7782   -1.2718 H   0  0  0  0  0  0  0  0  0  0  0  0
    2.5522   -2.0262    0.0805 H   0  0  0  0  0  0  0  0  0  0  0  0
    1.9464    1.8332    1.6868 H   0  0  0  0  0  0  0  0  0  0  0  0
    1.0980    0.4143    2.3157 H   0  0  0  0  0  0  0  0  0  0  0  0
    3.0958   -0.7147    1.9057 H   0  0  0  0  0  0  0  0  0  0  0  0
    3.6843    0.5210    0.7909 H   0  0  0  0  0  0  0  0  0  0  0  0
   -0.2827    3.3293   -0.0575 H   0  0  0  0  0  0  0  0  0  0  0  0
   -0.2921    2.5452   -1.6434 H   0  0  0  0  0  0  0  0  0  0  0  0
   -1.8178    2.8653   -0.8138 H   0  0  0  0  0  0  0  0  0  0  0  0
   -1.4176    0.4116    1.9704 H   0  0  0  0  0  0  0  0  0  0  0  0
   -0.9208    2.0928    1.9915 H   0  0  0  0  0  0  0  0  0  0  0  0
   -2.4492    1.6630    1.2460 H   0  0  0  0  0  0  0  0  0  0  0  0
   -4.1618   -1.5519    0.0835 H   0  0  0  0  0  0  0  0  0  0  0  0
   -3.5326   -0.2058    1.0011 H   0  0  0  0  0  0  0  0  0  0  0  0
   -3.9781    0.0194   -0.7063 H   0  0  0  0  0  0  0  0  0  0  0  0
    4.2017   -0.8489   -1.2811 H   0  0  0  0  0  0  0  0  0  0  0  0
    2.7908   -1.2655   -2.2611 H   0  0  0  0  0  0  0  0  0  0  0  0
    3.0355    0.4042   -1.7171 H   0  0  0  0  0  0  0  0  0  0  0  0
  1  4  1  0
  1  8  1  0
  2  3  1  0
  2  4  1  0
  2  7  1  0
  2 10  1  0
  3  6  1  0
  3 11  1  0
  4  8  1  0
  5  6  1  0
  5  7  1  0
  5  9  1  0
  6 13  1  0
  6 14  1  0
  8  9  1  0
  9 15  1  0
 10 12  1  0
 10 16  1  0
 11 12  1  0
  3 17  1  0
  4 18  1  0
  5 19  1  0
  7 20  1  0
  7 21  1  0
  8 22  1  0
  9 23  1  0
 10 24  1  0
 11 25  1  0
 11 26  1  0
 12 27  1  0
 12 28  1  0
 13 29  1  0
 13 30  1  0
 13 31  1  0
 14 32  1  0
 14 33  1  0
 14 34  1  0
 15 35  1  0
 15 36  1  0
 15 37  1  0
 16 38  1  0
 16 39  1  0
 16 40  1  0
M  END
$$$$
