IMPHY003681
  -OEChem-01202214563D

 72 77  0     1  0  0  0  0  0999 V2000
   -3.3374   -0.8855   -0.3590 O   0  0  0  0  0  0  0  0  0  0  0  0
   -4.8313    0.2568    1.1174 O   0  0  0  0  0  0  0  0  0  0  0  0
    8.1326   -0.6562    0.2426 O   0  0  0  0  0  0  0  0  0  0  0  0
   -0.4649    0.9180   -0.0741 C   0  0  1  0  0  0  0  0  0  0  0  0
    0.1513   -0.4481    0.3085 C   0  0  2  0  0  0  0  0  0  0  0  0
   -1.8799    0.7686    0.5599 C   0  0  2  0  0  0  0  0  0  0  0  0
    1.5709   -0.6501   -0.2285 C   0  0  1  0  0  0  0  0  0  0  0  0
   -2.1871   -0.7418    0.4683 C   0  0  2  0  0  0  0  0  0  0  0  0
    2.4910    0.4868    0.3061 C   0  0  2  0  0  0  0  0  0  0  0  0
   -0.9413   -1.4373   -0.0821 C   0  0  0  0  0  0  0  0  0  0  0  0
    0.4043    2.0036    0.5786 C   0  0  0  0  0  0  0  0  0  0  0  0
   -3.0879    1.4297   -0.1135 C   0  0  1  0  0  0  0  0  0  0  0  0
    1.8723    1.9013    0.1269 C   0  0  0  0  0  0  0  0  0  0  0  0
    3.9635    0.3492   -0.2532 C   0  0  2  0  0  0  0  0  0  0  0  0
   -4.1364    0.2985   -0.1377 C   0  0  1  0  0  0  0  0  0  0  0  0
   -0.5194    1.1516   -1.6049 C   0  0  0  0  0  0  0  0  0  0  0  0
    2.1245   -2.0188    0.1957 C   0  0  0  0  0  0  0  0  0  0  0  0
    4.4406   -1.1082   -0.1787 C   0  0  0  0  0  0  0  0  0  0  0  0
    4.9017    1.2383    0.6168 C   0  0  0  0  0  0  0  0  0  0  0  0
   -3.5199    2.7091    0.5932 C   0  0  0  0  0  0  0  0  0  0  0  0
   -5.1341    0.4676   -1.2892 C   0  0  0  0  0  0  0  0  0  0  0  0
    3.6062   -2.1404    0.0357 C   0  0  0  0  0  0  0  0  0  0  0  0
    4.0498    0.8056   -1.7296 C   0  0  0  0  0  0  0  0  0  0  0  0
    5.9210   -1.3588   -0.3504 C   0  0  0  0  0  0  0  0  0  0  0  0
    6.3925    1.0045    0.3767 C   0  0  0  0  0  0  0  0  0  0  0  0
   -6.2141   -0.6113   -1.2512 C   0  0  0  0  0  0  0  0  0  0  0  0
    6.7576   -0.4651    0.5597 C   0  0  2  0  0  0  0  0  0  0  0  0
   -6.8638   -0.6654    0.1337 C   0  0  2  0  0  0  0  0  0  0  0  0
   -5.7857   -0.8004    1.2088 C   0  0  0  0  0  0  0  0  0  0  0  0
   -7.8766   -1.8018    0.2233 C   0  0  0  0  0  0  0  0  0  0  0  0
    0.2277   -0.4928    1.4088 H   0  0  0  0  0  0  0  0  0  0  0  0
   -1.8301    1.0372    1.6241 H   0  0  0  0  0  0  0  0  0  0  0  0
    1.5544   -0.6281   -1.3235 H   0  0  0  0  0  0  0  0  0  0  0  0
   -2.4278   -1.1371    1.4637 H   0  0  0  0  0  0  0  0  0  0  0  0
    2.5495    0.3349    1.3965 H   0  0  0  0  0  0  0  0  0  0  0  0
   -1.0022   -1.5996   -1.1631 H   0  0  0  0  0  0  0  0  0  0  0  0
   -0.7986   -2.4154    0.3884 H   0  0  0  0  0  0  0  0  0  0  0  0
    0.3695    1.9111    1.6719 H   0  0  0  0  0  0  0  0  0  0  0  0
    0.0148    3.0008    0.3408 H   0  0  0  0  0  0  0  0  0  0  0  0
   -2.8601    1.6926   -1.1492 H   0  0  0  0  0  0  0  0  0  0  0  0
    1.9329    2.2191   -0.9178 H   0  0  0  0  0  0  0  0  0  0  0  0
    2.4525    2.6324    0.7013 H   0  0  0  0  0  0  0  0  0  0  0  0
    0.4539    1.0442   -2.0902 H   0  0  0  0  0  0  0  0  0  0  0  0
   -1.1967    0.4546   -2.1087 H   0  0  0  0  0  0  0  0  0  0  0  0
   -0.8595    2.1692   -1.8291 H   0  0  0  0  0  0  0  0  0  0  0  0
    1.6412   -2.8007   -0.4025 H   0  0  0  0  0  0  0  0  0  0  0  0
    1.8810   -2.2268    1.2450 H   0  0  0  0  0  0  0  0  0  0  0  0
    4.7000    1.0528    1.6807 H   0  0  0  0  0  0  0  0  0  0  0  0
    4.6898    2.3002    0.4438 H   0  0  0  0  0  0  0  0  0  0  0  0
   -2.7249    3.4604    0.5390 H   0  0  0  0  0  0  0  0  0  0  0  0
   -4.4134    3.1318    0.1238 H   0  0  0  0  0  0  0  0  0  0  0  0
   -3.7421    2.5379    1.6516 H   0  0  0  0  0  0  0  0  0  0  0  0
   -4.6208    0.4193   -2.2567 H   0  0  0  0  0  0  0  0  0  0  0  0
   -5.6246    1.4459   -1.2158 H   0  0  0  0  0  0  0  0  0  0  0  0
    4.0067   -3.1493    0.0996 H   0  0  0  0  0  0  0  0  0  0  0  0
    5.0386    0.6247   -2.1642 H   0  0  0  0  0  0  0  0  0  0  0  0
    3.3271    0.2787   -2.3610 H   0  0  0  0  0  0  0  0  0  0  0  0
    3.8659    1.8798   -1.8325 H   0  0  0  0  0  0  0  0  0  0  0  0
    6.1800   -2.4066   -0.1497 H   0  0  0  0  0  0  0  0  0  0  0  0
    6.1998   -1.1972   -1.3994 H   0  0  0  0  0  0  0  0  0  0  0  0
    6.6791    1.3472   -0.6252 H   0  0  0  0  0  0  0  0  0  0  0  0
    6.9813    1.6163    1.0713 H   0  0  0  0  0  0  0  0  0  0  0  0
   -6.9697   -0.4029   -2.0176 H   0  0  0  0  0  0  0  0  0  0  0  0
   -5.7695   -1.5837   -1.4981 H   0  0  0  0  0  0  0  0  0  0  0  0
    6.6165   -0.7569    1.6070 H   0  0  0  0  0  0  0  0  0  0  0  0
   -7.3900    0.2853    0.2931 H   0  0  0  0  0  0  0  0  0  0  0  0
   -6.2394   -0.7423    2.2040 H   0  0  0  0  0  0  0  0  0  0  0  0
   -5.2687   -1.7654    1.1462 H   0  0  0  0  0  0  0  0  0  0  0  0
   -8.3605   -1.8137    1.2056 H   0  0  0  0  0  0  0  0  0  0  0  0
   -8.6584   -1.6856   -0.5345 H   0  0  0  0  0  0  0  0  0  0  0  0
   -7.3983   -2.7751    0.0698 H   0  0  0  0  0  0  0  0  0  0  0  0
    8.2700   -0.3841   -0.6809 H   0  0  0  0  0  0  0  0  0  0  0  0
  1  8  1  0  0  0  0
  1 15  1  0  0  0  0
  2 15  1  0  0  0  0
  2 29  1  0  0  0  0
  3 27  1  0  0  0  0
  3 72  1  0  0  0  0
  4  5  1  0  0  0  0
  4  6  1  0  0  0  0
  4 11  1  0  0  0  0
  4 16  1  0  0  0  0
  5  7  1  0  0  0  0
  5 10  1  0  0  0  0
  5 31  1  0  0  0  0
  6  8  1  0  0  0  0
  6 12  1  0  0  0  0
  6 32  1  0  0  0  0
  7  9  1  0  0  0  0
  7 17  1  0  0  0  0
  7 33  1  0  0  0  0
  8 10  1  0  0  0  0
  8 34  1  0  0  0  0
  9 13  1  0  0  0  0
  9 14  1  0  0  0  0
  9 35  1  0  0  0  0
 10 36  1  0  0  0  0
 10 37  1  0  0  0  0
 11 13  1  0  0  0  0
 11 38  1  0  0  0  0
 11 39  1  0  0  0  0
 12 15  1  0  0  0  0
 12 20  1  0  0  0  0
 12 40  1  0  0  0  0
 13 41  1  0  0  0  0
 13 42  1  0  0  0  0
 14 18  1  0  0  0  0
 14 19  1  0  0  0  0
 14 23  1  0  0  0  0
 15 21  1  0  0  0  0
 16 43  1  0  0  0  0
 16 44  1  0  0  0  0
 16 45  1  0  0  0  0
 17 22  1  0  0  0  0
 17 46  1  0  0  0  0
 17 47  1  0  0  0  0
 18 22  2  0  0  0  0
 18 24  1  0  0  0  0
 19 25  1  0  0  0  0
 19 48  1  0  0  0  0
 19 49  1  0  0  0  0
 20 50  1  0  0  0  0
 20 51  1  0  0  0  0
 20 52  1  0  0  0  0
 21 26  1  0  0  0  0
 21 53  1  0  0  0  0
 21 54  1  0  0  0  0
 22 55  1  0  0  0  0
 23 56  1  0  0  0  0
 23 57  1  0  0  0  0
 23 58  1  0  0  0  0
 24 27  1  0  0  0  0
 24 59  1  0  0  0  0
 24 60  1  0  0  0  0
 25 27  1  0  0  0  0
 25 61  1  0  0  0  0
 25 62  1  0  0  0  0
 26 28  1  0  0  0  0
 26 63  1  0  0  0  0
 26 64  1  0  0  0  0
 27 65  1  0  0  0  0
 28 29  1  0  0  0  0
 28 30  1  0  0  0  0
 28 66  1  0  0  0  0
 29 67  1  0  0  0  0
 29 68  1  0  0  0  0
 30 69  1  0  0  0  0
 30 70  1  0  0  0  0
 30 71  1  0  0  0  0
M  END
$$$$
