IMPHY012761
     RDKit          3D

 60 59  0  0  0  0  0  0  0  0999 V2000
   -9.0840   -0.0971    0.8740 O   0  0  0  0  0  0  0  0  0  0  0  0
   -7.8736    1.5197    1.8772 O   0  0  0  0  0  0  0  0  0  0  0  0
    3.7767   -0.7739   -0.5304 C   0  0  0  0  0  0  0  0  0  0  0  0
    2.8495   -1.7664    0.1709 C   0  0  0  0  0  0  0  0  0  0  0  0
    5.1601   -1.3520   -0.8494 C   0  0  0  0  0  0  0  0  0  0  0  0
    1.4848   -1.1838    0.5587 C   0  0  0  0  0  0  0  0  0  0  0  0
    6.0006   -1.7812    0.3576 C   0  0  0  0  0  0  0  0  0  0  0  0
    0.6155   -0.7426   -0.6243 C   0  0  0  0  0  0  0  0  0  0  0  0
    6.2421   -0.7001    1.4157 C   0  0  0  0  0  0  0  0  0  0  0  0
   -4.1923    1.5945   -1.1387 C   0  0  0  0  0  0  0  0  0  0  0  0
   -5.3735    0.9345   -0.4181 C   0  0  0  0  0  0  0  0  0  0  0  0
   -2.9846    1.8304   -0.2255 C   0  0  0  0  0  0  0  0  0  0  0  0
    0.6826    0.7667   -0.8825 C   0  0  0  0  0  0  0  0  0  0  0  0
   -5.0654   -0.4821    0.0697 C   0  0  0  0  0  0  0  0  0  0  0  0
   -1.8680    2.6358   -0.8972 C   0  0  0  0  0  0  0  0  0  0  0  0
    6.9120    0.5800    0.9107 C   0  0  0  0  0  0  0  0  0  0  0  0
   -6.3020   -1.2635    0.5309 C   0  0  0  0  0  0  0  0  0  0  0  0
   -0.1618    1.1454   -2.0674 C   0  0  0  0  0  0  0  0  0  0  0  0
   -1.2518    1.9297   -2.0722 C   0  0  0  0  0  0  0  0  0  0  0  0
   -6.9624   -0.7160    1.7950 C   0  0  0  0  0  0  0  0  0  0  0  0
    8.2948    0.3490    0.3214 C   0  0  0  0  0  0  0  0  0  0  0  0
   -7.9899    0.3563    1.5252 C   0  0  0  0  0  0  0  0  0  0  0  0
   -9.0613   -1.0528    0.6801 H   0  0  0  0  0  0  0  0  0  0  0  0
    3.3261   -0.4724   -1.4828 H   0  0  0  0  0  0  0  0  0  0  0  0
    3.8767    0.1355    0.0720 H   0  0  0  0  0  0  0  0  0  0  0  0
    2.7014   -2.6441   -0.4701 H   0  0  0  0  0  0  0  0  0  0  0  0
    3.3224   -2.1272    1.0912 H   0  0  0  0  0  0  0  0  0  0  0  0
    5.0368   -2.2206   -1.5087 H   0  0  0  0  0  0  0  0  0  0  0  0
    5.7194   -0.6108   -1.4326 H   0  0  0  0  0  0  0  0  0  0  0  0
    1.6174   -0.3629    1.2734 H   0  0  0  0  0  0  0  0  0  0  0  0
    0.9433   -1.9729    1.0967 H   0  0  0  0  0  0  0  0  0  0  0  0
    5.5255   -2.6416    0.8437 H   0  0  0  0  0  0  0  0  0  0  0  0
    6.9658   -2.1522   -0.0081 H   0  0  0  0  0  0  0  0  0  0  0  0
   -0.4274   -1.0001   -0.3947 H   0  0  0  0  0  0  0  0  0  0  0  0
    0.8803   -1.3065   -1.5271 H   0  0  0  0  0  0  0  0  0  0  0  0
    6.8616   -1.1320    2.2120 H   0  0  0  0  0  0  0  0  0  0  0  0
    5.2895   -0.4340    1.8889 H   0  0  0  0  0  0  0  0  0  0  0  0
   -3.9042    0.9769   -1.9974 H   0  0  0  0  0  0  0  0  0  0  0  0
   -4.5313    2.5575   -1.5402 H   0  0  0  0  0  0  0  0  0  0  0  0
   -6.2226    0.9031   -1.1115 H   0  0  0  0  0  0  0  0  0  0  0  0
   -5.6690    1.5659    0.4260 H   0  0  0  0  0  0  0  0  0  0  0  0
   -2.5802    0.8717    0.1201 H   0  0  0  0  0  0  0  0  0  0  0  0
   -3.3125    2.3767    0.6676 H   0  0  0  0  0  0  0  0  0  0  0  0
    1.7109    1.0812   -1.0853 H   0  0  0  0  0  0  0  0  0  0  0  0
    0.3699    1.2978    0.0219 H   0  0  0  0  0  0  0  0  0  0  0  0
   -4.5964   -1.0466   -0.7459 H   0  0  0  0  0  0  0  0  0  0  0  0
   -4.3367   -0.4481    0.8880 H   0  0  0  0  0  0  0  0  0  0  0  0
   -1.1051    2.8815   -0.1505 H   0  0  0  0  0  0  0  0  0  0  0  0
   -2.2613    3.6010   -1.2398 H   0  0  0  0  0  0  0  0  0  0  0  0
    7.0058    1.2746    1.7543 H   0  0  0  0  0  0  0  0  0  0  0  0
    6.2776    1.0785    0.1699 H   0  0  0  0  0  0  0  0  0  0  0  0
   -5.9742   -2.2891    0.7434 H   0  0  0  0  0  0  0  0  0  0  0  0
   -7.0191   -1.3317   -0.2951 H   0  0  0  0  0  0  0  0  0  0  0  0
    0.1573    0.7202   -3.0188 H   0  0  0  0  0  0  0  0  0  0  0  0
   -1.7556    2.0897   -3.0252 H   0  0  0  0  0  0  0  0  0  0  0  0
   -7.4782   -1.5243    2.3280 H   0  0  0  0  0  0  0  0  0  0  0  0
   -6.2140   -0.3200    2.4908 H   0  0  0  0  0  0  0  0  0  0  0  0
    8.2461   -0.2471   -0.5945 H   0  0  0  0  0  0  0  0  0  0  0  0
    8.7600    1.3072    0.0686 H   0  0  0  0  0  0  0  0  0  0  0  0
    8.9455   -0.1652    1.0357 H   0  0  0  0  0  0  0  0  0  0  0  0
  1 22  1  0
  2 22  2  0
  3  4  1  0
  3  5  1  0
  4  6  1  0
  5  7  1  0
  6  8  1  0
  7  9  1  0
  8 13  1  0
  9 16  1  0
 10 11  1  0
 10 12  1  0
 11 14  1  0
 12 15  1  0
 13 18  1  0
 14 17  1  0
 15 19  1  0
 16 21  1  0
 17 20  1  0
 18 19  2  0
 20 22  1  0
  1 23  1  0
  3 24  1  0
  3 25  1  0
  4 26  1  0
  4 27  1  0
  5 28  1  0
  5 29  1  0
  6 30  1  0
  6 31  1  0
  7 32  1  0
  7 33  1  0
  8 34  1  0
  8 35  1  0
  9 36  1  0
  9 37  1  0
 10 38  1  0
 10 39  1  0
 11 40  1  0
 11 41  1  0
 12 42  1  0
 12 43  1  0
 13 44  1  0
 13 45  1  0
 14 46  1  0
 14 47  1  0
 15 48  1  0
 15 49  1  0
 16 50  1  0
 16 51  1  0
 17 52  1  0
 17 53  1  0
 18 54  1  0
 19 55  1  0
 20 56  1  0
 20 57  1  0
 21 58  1  0
 21 59  1  0
 21 60  1  0
M  END
$$$$
