IMPHY012921
  -OEChem-01202214553D

 39 39  0     1  0  0  0  0  0999 V2000
   -1.0690    0.9326    0.3660 C   0  0  2  0  0  0  0  0  0  0  0  0
   -0.6864   -0.4833   -0.1834 C   0  0  1  0  0  0  0  0  0  0  0  0
    0.1420    1.8904    0.2022 C   0  0  0  0  0  0  0  0  0  0  0  0
    0.6185   -1.0247    0.4365 C   0  0  0  0  0  0  0  0  0  0  0  0
    1.4355    1.3521    0.8189 C   0  0  0  0  0  0  0  0  0  0  0  0
    1.7372   -0.0260    0.2987 C   0  0  0  0  0  0  0  0  0  0  0  0
   -1.5046    0.8861    1.8468 C   0  0  0  0  0  0  0  0  0  0  0  0
   -1.7791   -1.5048   -0.0263 C   0  0  0  0  0  0  0  0  0  0  0  0
   -2.2146    1.5128   -0.4355 C   0  0  0  0  0  0  0  0  0  0  0  0
    2.9117   -0.3371   -0.2686 C   0  0  0  0  0  0  0  0  0  0  0  0
   -2.7740   -1.5868   -1.1458 C   0  0  0  0  0  0  0  0  0  0  0  0
   -1.8588   -2.2973    1.0529 C   0  0  0  0  0  0  0  0  0  0  0  0
   -2.1714    1.7284   -1.7546 C   0  0  0  0  0  0  0  0  0  0  0  0
    3.2030   -1.7152   -0.7846 C   0  0  0  0  0  0  0  0  0  0  0  0
    4.0102    0.6726   -0.4231 C   0  0  0  0  0  0  0  0  0  0  0  0
   -0.4675   -0.3980   -1.2587 H   0  0  0  0  0  0  0  0  0  0  0  0
   -0.0836    2.8669    0.6517 H   0  0  0  0  0  0  0  0  0  0  0  0
    0.3471    2.0871   -0.8588 H   0  0  0  0  0  0  0  0  0  0  0  0
    0.8461   -1.9914   -0.0237 H   0  0  0  0  0  0  0  0  0  0  0  0
    0.5272   -1.2103    1.5124 H   0  0  0  0  0  0  0  0  0  0  0  0
    1.3366    1.3021    1.9100 H   0  0  0  0  0  0  0  0  0  0  0  0
    2.2295    2.0796    0.6281 H   0  0  0  0  0  0  0  0  0  0  0  0
   -0.7559    0.4122    2.4881 H   0  0  0  0  0  0  0  0  0  0  0  0
   -1.6640    1.8989    2.2379 H   0  0  0  0  0  0  0  0  0  0  0  0
   -2.4486    0.3471    1.9847 H   0  0  0  0  0  0  0  0  0  0  0  0
   -3.1310    1.7785    0.0872 H   0  0  0  0  0  0  0  0  0  0  0  0
   -3.4962   -0.7685   -1.1038 H   0  0  0  0  0  0  0  0  0  0  0  0
   -2.2733   -1.5750   -2.1193 H   0  0  0  0  0  0  0  0  0  0  0  0
   -3.3475   -2.5198   -1.0989 H   0  0  0  0  0  0  0  0  0  0  0  0
   -2.6610   -3.0256    1.1343 H   0  0  0  0  0  0  0  0  0  0  0  0
   -1.1843   -2.2574    1.8972 H   0  0  0  0  0  0  0  0  0  0  0  0
   -3.0321    2.1503   -2.2630 H   0  0  0  0  0  0  0  0  0  0  0  0
   -1.3036    1.4939   -2.3594 H   0  0  0  0  0  0  0  0  0  0  0  0
    2.6850   -1.8889   -1.7332 H   0  0  0  0  0  0  0  0  0  0  0  0
    4.2740   -1.8571   -0.9659 H   0  0  0  0  0  0  0  0  0  0  0  0
    2.9240   -2.4910   -0.0643 H   0  0  0  0  0  0  0  0  0  0  0  0
    4.8904    0.2442   -0.9140 H   0  0  0  0  0  0  0  0  0  0  0  0
    3.6863    1.5128   -1.0466 H   0  0  0  0  0  0  0  0  0  0  0  0
    4.3420    1.0443    0.5520 H   0  0  0  0  0  0  0  0  0  0  0  0
  1  2  1  0  0  0  0
  1  3  1  0  0  0  0
  1  7  1  0  0  0  0
  1  9  1  0  0  0  0
  2  4  1  0  0  0  0
  2  8  1  0  0  0  0
  2 16  1  0  0  0  0
  3  5  1  0  0  0  0
  3 17  1  0  0  0  0
  3 18  1  0  0  0  0
  4  6  1  0  0  0  0
  4 19  1  0  0  0  0
  4 20  1  0  0  0  0
  5  6  1  0  0  0  0
  5 21  1  0  0  0  0
  5 22  1  0  0  0  0
  6 10  2  0  0  0  0
  7 23  1  0  0  0  0
  7 24  1  0  0  0  0
  7 25  1  0  0  0  0
  8 11  1  0  0  0  0
  8 12  2  0  0  0  0
  9 13  2  0  0  0  0
  9 26  1  0  0  0  0
 10 14  1  0  0  0  0
 10 15  1  0  0  0  0
 11 27  1  0  0  0  0
 11 28  1  0  0  0  0
 11 29  1  0  0  0  0
 12 30  1  0  0  0  0
 12 31  1  0  0  0  0
 13 32  1  0  0  0  0
 13 33  1  0  0  0  0
 14 34  1  0  0  0  0
 14 35  1  0  0  0  0
 14 36  1  0  0  0  0
 15 37  1  0  0  0  0
 15 38  1  0  0  0  0
 15 39  1  0  0  0  0
M  END
$$$$
