IMPHY006463
  -OEChem-01202214553D

 38 38  0     0  0  0  0  0  0999 V2000
    1.1758   -1.4051   -1.7816 O   0  0  0  0  0  0  0  0  0  0  0  0
   -2.8008    1.3163    0.8065 C   0  0  0  0  0  0  0  0  0  0  0  0
   -2.9818   -0.1884    1.1417 C   0  0  0  0  0  0  0  0  0  0  0  0
    1.5724    0.3725   -0.2873 C   0  0  0  0  0  0  0  0  0  0  0  0
    0.7635    1.5593   -0.7591 C   0  0  0  0  0  0  0  0  0  0  0  0
   -1.7607    1.5343   -0.2868 C   0  0  0  0  0  0  0  0  0  0  0  0
    0.4687   -1.8492    0.4879 C   0  0  0  0  0  0  0  0  0  0  0  0
   -1.0308   -1.6696    0.4230 C   0  0  0  0  0  0  0  0  0  0  0  0
   -0.4740    1.7121    0.0788 C   0  0  0  0  0  0  0  0  0  0  0  0
    1.1025   -1.0060   -0.6198 C   0  0  0  0  0  0  0  0  0  0  0  0
   -1.6369   -0.8546    1.3108 C   0  0  0  0  0  0  0  0  0  0  0  0
    2.7335    0.4524    0.3748 C   0  0  0  0  0  0  0  0  0  0  0  0
   -2.2558    1.3694   -1.6939 C   0  0  0  0  0  0  0  0  0  0  0  0
   -1.7220   -2.3429   -0.7304 C   0  0  0  0  0  0  0  0  0  0  0  0
    3.3309    1.7696    0.7766 C   0  0  0  0  0  0  0  0  0  0  0  0
    3.5156   -0.7699    0.7588 C   0  0  0  0  0  0  0  0  0  0  0  0
   -2.5040    1.8501    1.7195 H   0  0  0  0  0  0  0  0  0  0  0  0
   -3.7623    1.7503    0.5075 H   0  0  0  0  0  0  0  0  0  0  0  0
   -3.5781   -0.6570    0.3536 H   0  0  0  0  0  0  0  0  0  0  0  0
   -3.5557   -0.2910    2.0695 H   0  0  0  0  0  0  0  0  0  0  0  0
    0.5228    1.4013   -1.8152 H   0  0  0  0  0  0  0  0  0  0  0  0
    1.3247    2.4977   -0.7390 H   0  0  0  0  0  0  0  0  0  0  0  0
    0.8707   -1.5497    1.4619 H   0  0  0  0  0  0  0  0  0  0  0  0
    0.7523   -2.8978    0.3466 H   0  0  0  0  0  0  0  0  0  0  0  0
   -0.2654    1.8386    1.1422 H   0  0  0  0  0  0  0  0  0  0  0  0
   -1.0425   -0.4520    2.1308 H   0  0  0  0  0  0  0  0  0  0  0  0
   -2.6583    0.3645   -1.8489 H   0  0  0  0  0  0  0  0  0  0  0  0
   -1.4837    1.5422   -2.4466 H   0  0  0  0  0  0  0  0  0  0  0  0
   -3.0566    2.0905   -1.8903 H   0  0  0  0  0  0  0  0  0  0  0  0
   -1.3838   -3.3814   -0.8143 H   0  0  0  0  0  0  0  0  0  0  0  0
   -1.5005   -1.8329   -1.6720 H   0  0  0  0  0  0  0  0  0  0  0  0
   -2.8075   -2.3831   -0.6092 H   0  0  0  0  0  0  0  0  0  0  0  0
    3.8601    1.6645    1.7309 H   0  0  0  0  0  0  0  0  0  0  0  0
    4.0543    2.1033    0.0262 H   0  0  0  0  0  0  0  0  0  0  0  0
    2.5904    2.5573    0.9365 H   0  0  0  0  0  0  0  0  0  0  0  0
    4.5819   -0.5940    0.5727 H   0  0  0  0  0  0  0  0  0  0  0  0
    3.3944   -0.9725    1.8281 H   0  0  0  0  0  0  0  0  0  0  0  0
    3.2687   -1.6781    0.2040 H   0  0  0  0  0  0  0  0  0  0  0  0
  1 10  2  0  0  0  0
  2  3  1  0  0  0  0
  2  6  1  0  0  0  0
  2 17  1  0  0  0  0
  2 18  1  0  0  0  0
  3 11  1  0  0  0  0
  3 19  1  0  0  0  0
  3 20  1  0  0  0  0
  4  5  1  0  0  0  0
  4 10  1  0  0  0  0
  4 12  2  0  0  0  0
  5  9  1  0  0  0  0
  5 21  1  0  0  0  0
  5 22  1  0  0  0  0
  6  9  2  0  0  0  0
  6 13  1  0  0  0  0
  7  8  1  0  0  0  0
  7 10  1  0  0  0  0
  7 23  1  0  0  0  0
  7 24  1  0  0  0  0
  8 11  2  0  0  0  0
  8 14  1  0  0  0  0
  9 25  1  0  0  0  0
 11 26  1  0  0  0  0
 12 15  1  0  0  0  0
 12 16  1  0  0  0  0
 13 27  1  0  0  0  0
 13 28  1  0  0  0  0
 13 29  1  0  0  0  0
 14 30  1  0  0  0  0
 14 31  1  0  0  0  0
 14 32  1  0  0  0  0
 15 33  1  0  0  0  0
 15 34  1  0  0  0  0
 15 35  1  0  0  0  0
 16 36  1  0  0  0  0
 16 37  1  0  0  0  0
 16 38  1  0  0  0  0
M  END
$$$$
