IMPHY011749
  -OEChem-01202214463D

 40 41  0     1  0  0  0  0  0999 V2000
    3.0084    1.3587    0.3483 O   0  0  0  0  0  0  0  0  0  0  0  0
    1.7324    1.2472   -0.2904 C   0  0  1  0  0  0  0  0  0  0  0  0
    2.1467    0.3128    0.8243 C   0  0  1  0  0  0  0  0  0  0  0  0
    2.6086   -1.0805    0.5241 C   0  0  0  0  0  0  0  0  0  0  0  0
    0.7517    2.3498   -0.0171 C   0  0  0  0  0  0  0  0  0  0  0  0
    1.8845    0.8715   -1.7256 C   0  0  0  0  0  0  0  0  0  0  0  0
    1.5247   -2.1344    0.8123 C   0  0  0  0  0  0  0  0  0  0  0  0
   -0.5979    1.8314    0.3993 C   0  0  0  0  0  0  0  0  0  0  0  0
   -2.5766    0.2486   -0.0007 C   0  0  0  0  0  0  0  0  0  0  0  0
    0.2727   -1.9806   -0.0349 C   0  0  0  0  0  0  0  0  0  0  0  0
   -1.3667    1.0824   -0.4084 C   0  0  0  0  0  0  0  0  0  0  0  0
   -2.1948   -1.2631   -0.1425 C   0  0  0  0  0  0  0  0  0  0  0  0
   -0.8931   -1.6213    0.5424 C   0  0  0  0  0  0  0  0  0  0  0  0
   -2.8936    0.5464    1.4777 C   0  0  0  0  0  0  0  0  0  0  0  0
   -3.8529    0.5469   -0.8165 C   0  0  0  0  0  0  0  0  0  0  0  0
    0.4458   -2.3159   -1.4922 C   0  0  0  0  0  0  0  0  0  0  0  0
    1.7361    0.4319    1.8178 H   0  0  0  0  0  0  0  0  0  0  0  0
    3.4570   -1.2919    1.1878 H   0  0  0  0  0  0  0  0  0  0  0  0
    3.0025   -1.2024   -0.4873 H   0  0  0  0  0  0  0  0  0  0  0  0
    0.6404    3.0125   -0.8840 H   0  0  0  0  0  0  0  0  0  0  0  0
    1.1316    2.9887    0.7909 H   0  0  0  0  0  0  0  0  0  0  0  0
    2.7807    0.2795   -1.9316 H   0  0  0  0  0  0  0  0  0  0  0  0
    1.0162    0.3226   -2.0921 H   0  0  0  0  0  0  0  0  0  0  0  0
    1.9782    1.7732   -2.3423 H   0  0  0  0  0  0  0  0  0  0  0  0
    1.2710   -2.0932    1.8798 H   0  0  0  0  0  0  0  0  0  0  0  0
    1.9435   -3.1346    0.6432 H   0  0  0  0  0  0  0  0  0  0  0  0
   -0.8393    1.9853    1.4451 H   0  0  0  0  0  0  0  0  0  0  0  0
   -1.0619    0.9581   -1.4454 H   0  0  0  0  0  0  0  0  0  0  0  0
   -2.1693   -1.5292   -1.2042 H   0  0  0  0  0  0  0  0  0  0  0  0
   -2.9868   -1.8847    0.2958 H   0  0  0  0  0  0  0  0  0  0  0  0
   -0.8956   -1.4852    1.6223 H   0  0  0  0  0  0  0  0  0  0  0  0
   -3.1843    1.5942    1.6249 H   0  0  0  0  0  0  0  0  0  0  0  0
   -3.7452   -0.0602    1.8120 H   0  0  0  0  0  0  0  0  0  0  0  0
   -2.0736    0.3225    2.1674 H   0  0  0  0  0  0  0  0  0  0  0  0
   -4.1497    1.5969   -0.7148 H   0  0  0  0  0  0  0  0  0  0  0  0
   -3.6878    0.3529   -1.8824 H   0  0  0  0  0  0  0  0  0  0  0  0
   -4.6912   -0.0773   -0.4878 H   0  0  0  0  0  0  0  0  0  0  0  0
   -0.3237   -1.8741   -2.1289 H   0  0  0  0  0  0  0  0  0  0  0  0
    0.4149   -3.4028   -1.6231 H   0  0  0  0  0  0  0  0  0  0  0  0
    1.4074   -1.9696   -1.8783 H   0  0  0  0  0  0  0  0  0  0  0  0
  1  2  1  0  0  0  0
  1  3  1  0  0  0  0
  2  3  1  0  0  0  0
  2  5  1  0  0  0  0
  2  6  1  0  0  0  0
  3  4  1  0  0  0  0
  3 17  1  0  0  0  0
  4  7  1  0  0  0  0
  4 18  1  0  0  0  0
  4 19  1  0  0  0  0
  5  8  1  0  0  0  0
  5 20  1  0  0  0  0
  5 21  1  0  0  0  0
  6 22  1  0  0  0  0
  6 23  1  0  0  0  0
  6 24  1  0  0  0  0
  7 10  1  0  0  0  0
  7 25  1  0  0  0  0
  7 26  1  0  0  0  0
  8 11  2  0  0  0  0
  8 27  1  0  0  0  0
  9 11  1  0  0  0  0
  9 12  1  0  0  0  0
  9 14  1  0  0  0  0
  9 15  1  0  0  0  0
 10 13  2  0  0  0  0
 10 16  1  0  0  0  0
 11 28  1  0  0  0  0
 12 13  1  0  0  0  0
 12 29  1  0  0  0  0
 12 30  1  0  0  0  0
 13 31  1  0  0  0  0
 14 32  1  0  0  0  0
 14 33  1  0  0  0  0
 14 34  1  0  0  0  0
 15 35  1  0  0  0  0
 15 36  1  0  0  0  0
 15 37  1  0  0  0  0
 16 38  1  0  0  0  0
 16 39  1  0  0  0  0
 16 40  1  0  0  0  0
M  END
$$$$
