IMPHY015056
  -OEChem-01202214503D

 23 23  0     1  0  0  0  0  0999 V2000
    0.4385    1.4854    0.4937 O   0  0  0  0  0  0  0  0  0  0  0  0
   -1.1845   -2.2759   -0.1546 O   0  0  0  0  0  0  0  0  0  0  0  0
    1.6035   -1.8418   -0.5843 O   0  0  0  0  0  0  0  0  0  0  0  0
   -1.7392   -0.1022    1.4922 O   0  0  0  0  0  0  0  0  0  0  0  0
   -0.8712    1.8391   -1.4533 O   0  0  0  0  0  0  0  0  0  0  0  0
   -0.6333   -0.9989   -0.4681 C   0  0  2  0  0  0  0  0  0  0  0  0
    0.7804   -0.9057    0.1072 C   0  0  2  0  0  0  0  0  0  0  0  0
   -1.5277    0.1068    0.0951 C   0  0  2  0  0  0  0  0  0  0  0  0
    1.3291    0.5170   -0.0698 C   0  0  2  0  0  0  0  0  0  0  0  0
   -0.8746    1.4770   -0.0767 C   0  0  1  0  0  0  0  0  0  0  0  0
    2.6789    0.6991    0.6187 C   0  0  0  0  0  0  0  0  0  0  0  0
   -0.5977   -0.9281   -1.5623 H   0  0  0  0  0  0  0  0  0  0  0  0
    0.7673   -1.1984    1.1642 H   0  0  0  0  0  0  0  0  0  0  0  0
   -2.5085    0.0689   -0.3912 H   0  0  0  0  0  0  0  0  0  0  0  0
    1.4723    0.7387   -1.1353 H   0  0  0  0  0  0  0  0  0  0  0  0
   -1.4590    2.2264    0.4694 H   0  0  0  0  0  0  0  0  0  0  0  0
    2.6019    0.4882    1.6911 H   0  0  0  0  0  0  0  0  0  0  0  0
    3.4473    0.0515    0.1872 H   0  0  0  0  0  0  0  0  0  0  0  0
    3.0152    1.7378    0.5271 H   0  0  0  0  0  0  0  0  0  0  0  0
   -0.5785   -2.9494   -0.5083 H   0  0  0  0  0  0  0  0  0  0  0  0
    2.4510   -1.8973   -0.1120 H   0  0  0  0  0  0  0  0  0  0  0  0
   -0.9064    0.0800    1.9592 H   0  0  0  0  0  0  0  0  0  0  0  0
   -0.8688    2.8104   -1.4940 H   0  0  0  0  0  0  0  0  0  0  0  0
  1  9  1  0  0  0  0
  1 10  1  0  0  0  0
  2  6  1  0  0  0  0
  2 20  1  0  0  0  0
  3  7  1  0  0  0  0
  3 21  1  0  0  0  0
  4  8  1  0  0  0  0
  4 22  1  0  0  0  0
  5 10  1  0  0  0  0
  5 23  1  0  0  0  0
  6  7  1  0  0  0  0
  6  8  1  0  0  0  0
  6 12  1  0  0  0  0
  7  9  1  0  0  0  0
  7 13  1  0  0  0  0
  8 10  1  0  0  0  0
  8 14  1  0  0  0  0
  9 11  1  0  0  0  0
  9 15  1  0  0  0  0
 10 16  1  0  0  0  0
 11 17  1  0  0  0  0
 11 18  1  0  0  0  0
 11 19  1  0  0  0  0
M  END
$$$$
