IMPHY009378
     RDKit          3D

 95 94  0  0  0  0  0  0  0  0999 V2000
   -9.1371    5.5544    0.8692 O   0  0  0  0  0  0  0  0  0  0  0  0
   -9.5664    4.5082   -1.1281 O   0  0  0  0  0  0  0  0  0  0  0  0
    2.3112   -2.5398    0.4500 C   0  0  0  0  0  0  0  0  0  0  0  0
    1.2516   -3.6398    0.3377 C   0  0  0  0  0  0  0  0  0  0  0  0
    3.2617   -2.4087   -0.7444 C   0  0  0  0  0  0  0  0  0  0  0  0
    0.3333   -3.5514   -0.8853 C   0  0  0  0  0  0  0  0  0  0  0  0
    4.1225   -3.6539   -0.9748 C   0  0  0  0  0  0  0  0  0  0  0  0
   -0.4218   -2.2293   -1.0548 C   0  0  0  0  0  0  0  0  0  0  0  0
    5.1177   -3.5000   -2.1316 C   0  0  0  0  0  0  0  0  0  0  0  0
   -1.3459   -1.9007    0.1206 C   0  0  0  0  0  0  0  0  0  0  0  0
    6.2009   -2.4329   -1.9375 C   0  0  0  0  0  0  0  0  0  0  0  0
   -2.1483   -0.6252   -0.1499 C   0  0  0  0  0  0  0  0  0  0  0  0
    7.1847   -2.7619   -0.8094 C   0  0  0  0  0  0  0  0  0  0  0  0
   -3.0012   -0.1790    1.0415 C   0  0  0  0  0  0  0  0  0  0  0  0
    8.2408   -1.6664   -0.6066 C   0  0  0  0  0  0  0  0  0  0  0  0
   -4.0625   -1.1765    1.5087 C   0  0  0  0  0  0  0  0  0  0  0  0
    7.9684   -0.7400    0.5867 C   0  0  0  0  0  0  0  0  0  0  0  0
   -5.0945   -1.6202    0.4659 C   0  0  0  0  0  0  0  0  0  0  0  0
    6.6483    0.0331    0.5479 C   0  0  0  0  0  0  0  0  0  0  0  0
   -6.0663   -0.5233    0.0117 C   0  0  0  0  0  0  0  0  0  0  0  0
    6.6051    1.1066   -0.5387 C   0  0  0  0  0  0  0  0  0  0  0  0
   -5.6130    0.2145   -1.2486 C   0  0  0  0  0  0  0  0  0  0  0  0
    5.2136    1.7063   -0.7773 C   0  0  0  0  0  0  0  0  0  0  0  0
   -6.6754    1.1486   -1.8418 C   0  0  0  0  0  0  0  0  0  0  0  0
    4.5757    2.3803    0.4431 C   0  0  0  0  0  0  0  0  0  0  0  0
   -7.0596    2.3287   -0.9414 C   0  0  0  0  0  0  0  0  0  0  0  0
    3.6164    1.4559    1.2015 C   0  0  0  0  0  0  0  0  0  0  0  0
   -8.3574    2.0845   -0.1611 C   0  0  0  0  0  0  0  0  0  0  0  0
    2.8838    2.1560    2.3486 C   0  0  0  0  0  0  0  0  0  0  0  0
   -8.7052    3.2476    0.7687 C   0  0  0  0  0  0  0  0  0  0  0  0
    3.8030    2.5774    3.4846 C   0  0  0  0  0  0  0  0  0  0  0  0
   -9.1784    4.4795    0.0309 C   0  0  0  0  0  0  0  0  0  0  0  0
   -9.5819    6.7729    0.2719 C   0  0  0  0  0  0  0  0  0  0  0  0
    1.8162   -1.5743    0.6083 H   0  0  0  0  0  0  0  0  0  0  0  0
    2.9041   -2.7227    1.3552 H   0  0  0  0  0  0  0  0  0  0  0  0
    0.6419   -3.6265    1.2492 H   0  0  0  0  0  0  0  0  0  0  0  0
    1.7435   -4.6198    0.3320 H   0  0  0  0  0  0  0  0  0  0  0  0
    2.6995   -2.1721   -1.6545 H   0  0  0  0  0  0  0  0  0  0  0  0
    3.9051   -1.5458   -0.5497 H   0  0  0  0  0  0  0  0  0  0  0  0
    0.9192   -3.7374   -1.7933 H   0  0  0  0  0  0  0  0  0  0  0  0
   -0.3959   -4.3695   -0.8267 H   0  0  0  0  0  0  0  0  0  0  0  0
    4.6501   -3.9201   -0.0527 H   0  0  0  0  0  0  0  0  0  0  0  0
    3.4710   -4.5028   -1.2133 H   0  0  0  0  0  0  0  0  0  0  0  0
    0.2871   -1.4082   -1.2110 H   0  0  0  0  0  0  0  0  0  0  0  0
   -1.0207   -2.2966   -1.9719 H   0  0  0  0  0  0  0  0  0  0  0  0
    4.5592   -3.2651   -3.0464 H   0  0  0  0  0  0  0  0  0  0  0  0
    5.6017   -4.4688   -2.3067 H   0  0  0  0  0  0  0  0  0  0  0  0
   -0.7581   -1.7662    1.0352 H   0  0  0  0  0  0  0  0  0  0  0  0
   -2.0255   -2.7436    0.2876 H   0  0  0  0  0  0  0  0  0  0  0  0
    6.7653   -2.3513   -2.8754 H   0  0  0  0  0  0  0  0  0  0  0  0
    5.7383   -1.4556   -1.7809 H   0  0  0  0  0  0  0  0  0  0  0  0
   -1.4536    0.1892   -0.3917 H   0  0  0  0  0  0  0  0  0  0  0  0
   -2.7765   -0.7664   -1.0359 H   0  0  0  0  0  0  0  0  0  0  0  0
    6.6612   -2.9576    0.1318 H   0  0  0  0  0  0  0  0  0  0  0  0
    7.7007   -3.6930   -1.0765 H   0  0  0  0  0  0  0  0  0  0  0  0
   -2.3346    0.0298    1.8883 H   0  0  0  0  0  0  0  0  0  0  0  0
   -3.4792    0.7770    0.8022 H   0  0  0  0  0  0  0  0  0  0  0  0
    8.3849   -1.0844   -1.5235 H   0  0  0  0  0  0  0  0  0  0  0  0
    9.2023   -2.1592   -0.4110 H   0  0  0  0  0  0  0  0  0  0  0  0
   -3.5624   -2.0712    1.8991 H   0  0  0  0  0  0  0  0  0  0  0  0
   -4.5914   -0.7397    2.3656 H   0  0  0  0  0  0  0  0  0  0  0  0
    7.9821   -1.3457    1.5020 H   0  0  0  0  0  0  0  0  0  0  0  0
    8.8000   -0.0303    0.6779 H   0  0  0  0  0  0  0  0  0  0  0  0
   -4.6072   -2.0959   -0.3920 H   0  0  0  0  0  0  0  0  0  0  0  0
   -5.6952   -2.4078    0.9406 H   0  0  0  0  0  0  0  0  0  0  0  0
    5.8146   -0.6646    0.4347 H   0  0  0  0  0  0  0  0  0  0  0  0
    6.5177    0.5168    1.5236 H   0  0  0  0  0  0  0  0  0  0  0  0
   -7.0310   -0.9998   -0.2048 H   0  0  0  0  0  0  0  0  0  0  0  0
   -6.2366    0.1826    0.8314 H   0  0  0  0  0  0  0  0  0  0  0  0
    6.9519    0.6944   -1.4925 H   0  0  0  0  0  0  0  0  0  0  0  0
    7.3059    1.9094   -0.2777 H   0  0  0  0  0  0  0  0  0  0  0  0
   -4.7088    0.7960   -1.0472 H   0  0  0  0  0  0  0  0  0  0  0  0
   -5.3465   -0.5207   -2.0182 H   0  0  0  0  0  0  0  0  0  0  0  0
    4.5449    0.9412   -1.1892 H   0  0  0  0  0  0  0  0  0  0  0  0
    5.3251    2.4662   -1.5617 H   0  0  0  0  0  0  0  0  0  0  0  0
   -7.5624    0.5741   -2.1338 H   0  0  0  0  0  0  0  0  0  0  0  0
   -6.2566    1.5574   -2.7706 H   0  0  0  0  0  0  0  0  0  0  0  0
    5.3543    2.7726    1.1058 H   0  0  0  0  0  0  0  0  0  0  0  0
    3.9993    3.2452    0.0903 H   0  0  0  0  0  0  0  0  0  0  0  0
   -6.2395    2.5719   -0.2556 H   0  0  0  0  0  0  0  0  0  0  0  0
   -7.2007    3.2087   -1.5807 H   0  0  0  0  0  0  0  0  0  0  0  0
    4.1469    0.5835    1.5949 H   0  0  0  0  0  0  0  0  0  0  0  0
    2.8630    1.0740    0.5011 H   0  0  0  0  0  0  0  0  0  0  0  0
   -9.1804    1.9043   -0.8634 H   0  0  0  0  0  0  0  0  0  0  0  0
   -8.2600    1.1800    0.4473 H   0  0  0  0  0  0  0  0  0  0  0  0
    2.1294    1.4680    2.7489 H   0  0  0  0  0  0  0  0  0  0  0  0
    2.3442    3.0317    1.9700 H   0  0  0  0  0  0  0  0  0  0  0  0
   -7.8314    3.5064    1.3774 H   0  0  0  0  0  0  0  0  0  0  0  0
   -9.5162    2.9422    1.4394 H   0  0  0  0  0  0  0  0  0  0  0  0
    4.3786    1.7259    3.8611 H   0  0  0  0  0  0  0  0  0  0  0  0
    4.5031    3.3556    3.1674 H   0  0  0  0  0  0  0  0  0  0  0  0
    3.2135    2.9810    4.3142 H   0  0  0  0  0  0  0  0  0  0  0  0
  -10.6296    6.6899   -0.0333 H   0  0  0  0  0  0  0  0  0  0  0  0
   -9.5013    7.5661    1.0203 H   0  0  0  0  0  0  0  0  0  0  0  0
   -8.9482    7.0359   -0.5809 H   0  0  0  0  0  0  0  0  0  0  0  0
  1 32  1  0
  1 33  1  0
  2 32  2  0
  3  4  1  0
  3  5  1  0
  4  6  1  0
  5  7  1  0
  6  8  1  0
  7  9  1  0
  8 10  1  0
  9 11  1  0
 10 12  1  0
 11 13  1  0
 12 14  1  0
 13 15  1  0
 14 16  1  0
 15 17  1  0
 16 18  1  0
 17 19  1  0
 18 20  1  0
 19 21  1  0
 20 22  1  0
 21 23  1  0
 22 24  1  0
 23 25  1  0
 24 26  1  0
 25 27  1  0
 26 28  1  0
 27 29  1  0
 28 30  1  0
 29 31  1  0
 30 32  1  0
  3 34  1  0
  3 35  1  0
  4 36  1  0
  4 37  1  0
  5 38  1  0
  5 39  1  0
  6 40  1  0
  6 41  1  0
  7 42  1  0
  7 43  1  0
  8 44  1  0
  8 45  1  0
  9 46  1  0
  9 47  1  0
 10 48  1  0
 10 49  1  0
 11 50  1  0
 11 51  1  0
 12 52  1  0
 12 53  1  0
 13 54  1  0
 13 55  1  0
 14 56  1  0
 14 57  1  0
 15 58  1  0
 15 59  1  0
 16 60  1  0
 16 61  1  0
 17 62  1  0
 17 63  1  0
 18 64  1  0
 18 65  1  0
 19 66  1  0
 19 67  1  0
 20 68  1  0
 20 69  1  0
 21 70  1  0
 21 71  1  0
 22 72  1  0
 22 73  1  0
 23 74  1  0
 23 75  1  0
 24 76  1  0
 24 77  1  0
 25 78  1  0
 25 79  1  0
 26 80  1  0
 26 81  1  0
 27 82  1  0
 27 83  1  0
 28 84  1  0
 28 85  1  0
 29 86  1  0
 29 87  1  0
 30 88  1  0
 30 89  1  0
 31 90  1  0
 31 91  1  0
 31 92  1  0
 33 93  1  0
 33 94  1  0
 33 95  1  0
M  END
$$$$
