IMPHY003734
     RDKit          3D

113120  0  0  1  0  0  0  0  0999 V2000
   -6.5853   -1.1838    0.7684 O   0  0  0  0  0  0  0  0  0  0  0  0
   -7.3460   -0.8000    2.9641 O   0  0  0  0  0  0  0  0  0  0  0  0
    4.2849    0.5899   -2.5501 O   0  0  0  0  0  0  0  0  0  0  0  0
    6.4381    1.4794   -2.4694 O   0  0  0  0  0  0  0  0  0  0  0  0
    6.9063   -0.9091   -0.4824 O   0  0  0  0  0  0  0  0  0  0  0  0
    6.8416   -2.6016   -3.1409 O   0  0  0  0  0  0  0  0  0  0  0  0
    7.4449   -0.8328   -5.1869 O   0  0  0  0  0  0  0  0  0  0  0  0
    5.1363   -0.8385    1.0472 O   0  0  0  0  0  0  0  0  0  0  0  0
    6.2228    3.3475   -4.5346 O   0  0  0  0  0  0  0  0  0  0  0  0
    8.1157   -3.0306    1.3813 O   0  0  0  0  0  0  0  0  0  0  0  0
    5.9521   -3.3384    3.0184 O   0  0  0  0  0  0  0  0  0  0  0  0
    6.2441   -0.1329    4.4627 O   0  0  0  0  0  0  0  0  0  0  0  0
   -3.8700    0.8829    0.6231 C   0  0  1  0  0  0  0  0  0  0  0  0
   -3.1165   -0.4265    0.2913 C   0  0  2  0  0  0  0  0  0  0  0  0
   -4.9471    0.3404    1.6091 C   0  0  2  0  0  0  0  0  0  0  0  0
   -1.9933   -0.2416   -0.7326 C   0  0  1  0  0  0  0  0  0  0  0  0
   -5.2126   -1.1065    1.1393 C   0  0  2  0  0  0  0  0  0  0  0  0
   -0.9727    0.8046   -0.1939 C   0  0  2  0  0  0  0  0  0  0  0  0
   -4.2467   -1.4049   -0.0084 C   0  0  0  0  0  0  0  0  0  0  0  0
   -2.8523    1.8366    1.2676 C   0  0  0  0  0  0  0  0  0  0  0  0
   -6.3446    0.9712    1.6354 C   0  0  1  0  0  0  0  0  0  0  0  0
   -1.6523    2.0969    0.3392 C   0  0  0  0  0  0  0  0  0  0  0  0
    0.1890    1.0676   -1.2336 C   0  0  2  0  0  0  0  0  0  0  0  0
   -7.2743   -0.2598    1.6383 C   0  0  1  0  0  0  0  0  0  0  0  0
   -4.4912    1.5590   -0.6248 C   0  0  0  0  0  0  0  0  0  0  0  0
   -1.2846   -1.5760   -1.0119 C   0  0  0  0  0  0  0  0  0  0  0  0
    0.7034   -0.2565   -1.8180 C   0  0  0  0  0  0  0  0  0  0  0  0
    1.3558    1.7853   -0.4924 C   0  0  0  0  0  0  0  0  0  0  0  0
   -6.5208    1.9372    2.7994 C   0  0  0  0  0  0  0  0  0  0  0  0
   -8.6695    0.0184    1.0475 C   0  0  0  0  0  0  0  0  0  0  0  0
    0.0381   -1.4191   -1.6937 C   0  0  0  0  0  0  0  0  0  0  0  0
   -0.2945    1.9528   -2.4072 C   0  0  0  0  0  0  0  0  0  0  0  0
    2.0269   -0.2124   -2.5515 C   0  0  0  0  0  0  0  0  0  0  0  0
    2.6590    1.8591   -1.2877 C   0  0  0  0  0  0  0  0  0  0  0  0
    3.1215    0.4683   -1.7248 C   0  0  2  0  0  0  0  0  0  0  0  0
   -9.7238    0.1936    2.1331 C   0  0  0  0  0  0  0  0  0  0  0  0
   -9.7526   -1.0158    3.0806 C   0  0  2  0  0  0  0  0  0  0  0  0
   -8.4033   -1.7423    3.1047 C   0  0  0  0  0  0  0  0  0  0  0  0
  -10.8757   -1.9899    2.7313 C   0  0  0  0  0  0  0  0  0  0  0  0
    5.5096    0.6079   -1.8117 C   0  0  2  0  0  0  0  0  0  0  0  0
    6.0793   -0.8247   -1.6627 C   0  0  1  0  0  0  0  0  0  0  0  0
    6.9696   -1.1952   -2.8581 C   0  0  2  0  0  0  0  0  0  0  0  0
    6.7684    1.0965   -3.8176 C   0  0  1  0  0  0  0  0  0  0  0  0
    6.5964   -0.4025   -4.1104 C   0  0  1  0  0  0  0  0  0  0  0  0
    5.9614    1.9671   -4.7910 C   0  0  0  0  0  0  0  0  0  0  0  0
    6.2636   -1.5971    0.5955 C   0  0  2  0  0  0  0  0  0  0  0  0
    7.3224   -1.8727    1.6956 C   0  0  1  0  0  0  0  0  0  0  0  0
    6.6579   -2.0824    3.0580 C   0  0  1  0  0  0  0  0  0  0  0  0
    5.4246   -0.0304    2.1874 C   0  0  2  0  0  0  0  0  0  0  0  0
    5.6974   -0.9299    3.4085 C   0  0  2  0  0  0  0  0  0  0  0  0
    4.2257    0.8801    2.4329 C   0  0  0  0  0  0  0  0  0  0  0  0
    7.3554   -2.7351   -3.9625 H   0  0  0  0  0  0  0  0  0  0  0  0
    7.1474   -0.3886   -6.0005 H   0  0  0  0  0  0  0  0  0  0  0  0
    6.1801    3.4427   -3.5625 H   0  0  0  0  0  0  0  0  0  0  0  0
    7.5294   -3.7972    1.5379 H   0  0  0  0  0  0  0  0  0  0  0  0
    5.6498   -3.5346    3.9233 H   0  0  0  0  0  0  0  0  0  0  0  0
    6.2848   -0.6804    5.2663 H   0  0  0  0  0  0  0  0  0  0  0  0
   -2.6346   -0.7878    1.2164 H   0  0  0  0  0  0  0  0  0  0  0  0
   -4.5218    0.2923    2.6211 H   0  0  0  0  0  0  0  0  0  0  0  0
   -2.4165    0.1090   -1.6802 H   0  0  0  0  0  0  0  0  0  0  0  0
   -5.0369   -1.8087    1.9647 H   0  0  0  0  0  0  0  0  0  0  0  0
   -0.5080    0.3389    0.6909 H   0  0  0  0  0  0  0  0  0  0  0  0
   -4.7055   -1.2391   -0.9885 H   0  0  0  0  0  0  0  0  0  0  0  0
   -3.9103   -2.4462    0.0234 H   0  0  0  0  0  0  0  0  0  0  0  0
   -2.4783    1.4127    2.2086 H   0  0  0  0  0  0  0  0  0  0  0  0
   -3.3301    2.7890    1.5266 H   0  0  0  0  0  0  0  0  0  0  0  0
   -6.5321    1.5299    0.7159 H   0  0  0  0  0  0  0  0  0  0  0  0
   -0.9208    2.6946    0.8949 H   0  0  0  0  0  0  0  0  0  0  0  0
   -1.9897    2.7251   -0.4899 H   0  0  0  0  0  0  0  0  0  0  0  0
   -4.9292    2.5287   -0.3612 H   0  0  0  0  0  0  0  0  0  0  0  0
   -5.2779    0.9494   -1.0806 H   0  0  0  0  0  0  0  0  0  0  0  0
   -3.7605    1.7608   -1.4121 H   0  0  0  0  0  0  0  0  0  0  0  0
   -1.1184   -2.1288   -0.0789 H   0  0  0  0  0  0  0  0  0  0  0  0
   -1.9320   -2.2005   -1.6394 H   0  0  0  0  0  0  0  0  0  0  0  0
    1.5671    1.2639    0.4510 H   0  0  0  0  0  0  0  0  0  0  0  0
    1.0633    2.8067   -0.2210 H   0  0  0  0  0  0  0  0  0  0  0  0
   -6.3637    1.4488    3.7664 H   0  0  0  0  0  0  0  0  0  0  0  0
   -5.8024    2.7603    2.7229 H   0  0  0  0  0  0  0  0  0  0  0  0
   -7.5242    2.3723    2.7971 H   0  0  0  0  0  0  0  0  0  0  0  0
   -8.9686   -0.8194    0.4030 H   0  0  0  0  0  0  0  0  0  0  0  0
   -8.6541    0.8940    0.3882 H   0  0  0  0  0  0  0  0  0  0  0  0
    0.4597   -2.3320   -2.1109 H   0  0  0  0  0  0  0  0  0  0  0  0
    0.4667    2.0630   -3.1868 H   0  0  0  0  0  0  0  0  0  0  0  0
   -0.5373    2.9674   -2.0755 H   0  0  0  0  0  0  0  0  0  0  0  0
   -1.1833    1.5360   -2.8920 H   0  0  0  0  0  0  0  0  0  0  0  0
    1.9016    0.3086   -3.5091 H   0  0  0  0  0  0  0  0  0  0  0  0
    2.3696   -1.2196   -2.8226 H   0  0  0  0  0  0  0  0  0  0  0  0
    2.5418    2.5090   -2.1637 H   0  0  0  0  0  0  0  0  0  0  0  0
    3.4317    2.3400   -0.6772 H   0  0  0  0  0  0  0  0  0  0  0  0
    3.3373   -0.1558   -0.8486 H   0  0  0  0  0  0  0  0  0  0  0  0
  -10.7074    0.3699    1.6829 H   0  0  0  0  0  0  0  0  0  0  0  0
   -9.4883    1.0933    2.7141 H   0  0  0  0  0  0  0  0  0  0  0  0
   -9.9544   -0.6283    4.0881 H   0  0  0  0  0  0  0  0  0  0  0  0
   -8.2759   -2.2532    4.0652 H   0  0  0  0  0  0  0  0  0  0  0  0
   -8.3252   -2.5083    2.3231 H   0  0  0  0  0  0  0  0  0  0  0  0
  -11.8506   -1.4941    2.7857 H   0  0  0  0  0  0  0  0  0  0  0  0
  -10.8898   -2.8329    3.4302 H   0  0  0  0  0  0  0  0  0  0  0  0
  -10.7556   -2.3893    1.7186 H   0  0  0  0  0  0  0  0  0  0  0  0
    5.3499    1.0547   -0.8251 H   0  0  0  0  0  0  0  0  0  0  0  0
    5.2546   -1.5461   -1.5945 H   0  0  0  0  0  0  0  0  0  0  0  0
    8.0295   -1.0394   -2.6189 H   0  0  0  0  0  0  0  0  0  0  0  0
    7.8239    1.3703   -3.9418 H   0  0  0  0  0  0  0  0  0  0  0  0
    5.5706   -0.6500   -4.4084 H   0  0  0  0  0  0  0  0  0  0  0  0
    4.8843    1.8152   -4.6801 H   0  0  0  0  0  0  0  0  0  0  0  0
    6.2344    1.7602   -5.8298 H   0  0  0  0  0  0  0  0  0  0  0  0
    5.8911   -2.5577    0.2183 H   0  0  0  0  0  0  0  0  0  0  0  0
    8.0202   -1.0287    1.7533 H   0  0  0  0  0  0  0  0  0  0  0  0
    7.4351   -2.2015    3.8222 H   0  0  0  0  0  0  0  0  0  0  0  0
    6.2855    0.6176    1.9750 H   0  0  0  0  0  0  0  0  0  0  0  0
    4.7499   -1.3458    3.7733 H   0  0  0  0  0  0  0  0  0  0  0  0
    4.0526    1.5192    1.5614 H   0  0  0  0  0  0  0  0  0  0  0  0
    3.3107    0.2955    2.5789 H   0  0  0  0  0  0  0  0  0  0  0  0
    4.3785    1.5217    3.3057 H   0  0  0  0  0  0  0  0  0  0  0  0
  1 17  1  0
 24  1  1  6
  2 24  1  0
  2 38  1  0
 35  3  1  0
 40  3  1  0
  4 40  1  0
  4 43  1  0
 41  5  1  0
 46  5  1  0
 42  6  1  0
 44  7  1  0
  8 46  1  0
  8 49  1  0
  9 45  1  0
 47 10  1  0
 48 11  1  0
 50 12  1  0
 13 14  1  0
 13 15  1  0
 13 20  1  0
 13 25  1  6
 14 16  1  0
 14 19  1  0
 15 17  1  0
 15 21  1  0
 16 18  1  0
 16 26  1  0
 17 19  1  0
 18 22  1  0
 18 23  1  0
 20 22  1  0
 21 24  1  0
 21 29  1  0
 23 27  1  0
 23 28  1  0
 23 32  1  6
 24 30  1  0
 26 31  1  0
 27 31  2  0
 27 33  1  0
 28 34  1  0
 30 36  1  0
 33 35  1  0
 34 35  1  0
 36 37  1  0
 37 38  1  0
 37 39  1  0
 40 41  1  0
 41 42  1  0
 42 44  1  0
 43 44  1  0
 43 45  1  0
 46 47  1  0
 47 48  1  0
 48 50  1  0
 49 50  1  0
 49 51  1  0
  6 52  1  0
  7 53  1  0
  9 54  1  0
 10 55  1  0
 11 56  1  0
 12 57  1  0
 14 58  1  1
 15 59  1  1
 16 60  1  6
 17 61  1  1
 18 62  1  1
 19 63  1  0
 19 64  1  0
 20 65  1  0
 20 66  1  0
 21 67  1  6
 22 68  1  0
 22 69  1  0
 25 70  1  0
 25 71  1  0
 25 72  1  0
 26 73  1  0
 26 74  1  0
 28 75  1  0
 28 76  1  0
 29 77  1  0
 29 78  1  0
 29 79  1  0
 30 80  1  0
 30 81  1  0
 31 82  1  0
 32 83  1  0
 32 84  1  0
 32 85  1  0
 33 86  1  0
 33 87  1  0
 34 88  1  0
 34 89  1  0
 35 90  1  1
 36 91  1  0
 36 92  1  0
 37 93  1  1
 38 94  1  0
 38 95  1  0
 39 96  1  0
 39 97  1  0
 39 98  1  0
 40 99  1  1
 41100  1  1
 42101  1  1
 43102  1  6
 44103  1  6
 45104  1  0
 45105  1  0
 46106  1  6
 47107  1  1
 48108  1  1
 49109  1  6
 50110  1  1
 51111  1  0
 51112  1  0
 51113  1  0
M  END
$$$$
