IMPHY003636
     RDKit          3D

157165  0  0  1  0  0  0  0  0999 V2000
    6.2381    0.7154    0.2310 O   0  0  0  0  0  0  0  0  0  0  0  0
    7.7853   -0.9520    0.4749 O   0  0  0  0  0  0  0  0  0  0  0  0
   -4.9790    1.2405   -1.6667 O   0  0  0  0  0  0  0  0  0  0  0  0
   -7.1172    0.6583   -2.4056 O   0  0  0  0  0  0  0  0  0  0  0  0
   11.9807   -1.0490    0.0377 O   0  0  0  0  0  0  0  0  0  0  0  0
   -7.3369   -0.9696    0.0882 O   0  0  0  0  0  0  0  0  0  0  0  0
   -6.4775    2.5821    0.6201 O   0  0  0  0  0  0  0  0  0  0  0  0
   -9.4766    0.8498   -0.6334 O   0  0  0  0  0  0  0  0  0  0  0  0
   13.9746   -1.3434    1.1593 O   0  0  0  0  0  0  0  0  0  0  0  0
   -7.4356   -3.1166    0.9843 O   0  0  0  0  0  0  0  0  0  0  0  0
   -7.9077    4.2716   -2.3624 O   0  0  0  0  0  0  0  0  0  0  0  0
   11.7286    1.3410    2.1398 O   0  0  0  0  0  0  0  0  0  0  0  0
  -10.3280    1.5798    1.4440 O   0  0  0  0  0  0  0  0  0  0  0  0
   -7.0282   -0.4283    3.3280 O   0  0  0  0  0  0  0  0  0  0  0  0
   13.1547   -1.3277    4.1193 O   0  0  0  0  0  0  0  0  0  0  0  0
   14.6344    1.5734    2.4326 O   0  0  0  0  0  0  0  0  0  0  0  0
   -7.4229   -3.1338    3.8701 O   0  0  0  0  0  0  0  0  0  0  0  0
  -12.3082    0.1006   -1.2610 O   0  0  0  0  0  0  0  0  0  0  0  0
  -10.7240   -2.6880    2.3679 O   0  0  0  0  0  0  0  0  0  0  0  0
   17.0749   -1.4467    3.0829 O   0  0  0  0  0  0  0  0  0  0  0  0
  -13.9988   -0.2022    0.6770 O   0  0  0  0  0  0  0  0  0  0  0  0
  -13.8002    1.7530    2.6703 O   0  0  0  0  0  0  0  0  0  0  0  0
    3.6285   -0.3325   -1.4123 C   0  0  1  0  0  0  0  0  0  0  0  0
    2.7994    0.1250   -0.1916 C   0  0  2  0  0  0  0  0  0  0  0  0
    4.8390   -0.9716   -0.6719 C   0  0  2  0  0  0  0  0  0  0  0  0
    1.5022    0.8482   -0.5668 C   0  0  1  0  0  0  0  0  0  0  0  0
    5.0677   -0.0390    0.5291 C   0  0  2  0  0  0  0  0  0  0  0  0
    0.6299   -0.0799   -1.4628 C   0  0  2  0  0  0  0  0  0  0  0  0
    3.8271    0.8519    0.6704 C   0  0  0  0  0  0  0  0  0  0  0  0
    2.7729   -1.3373   -2.1969 C   0  0  0  0  0  0  0  0  0  0  0  0
    6.1964   -1.0273   -1.3802 C   0  0  1  0  0  0  0  0  0  0  0  0
    1.4327   -0.7182   -2.6301 C   0  0  0  0  0  0  0  0  0  0  0  0
   -0.7041    0.6391   -1.9143 C   0  0  2  0  0  0  0  0  0  0  0  0
    7.1175   -0.1623   -0.4910 C   0  0  1  0  0  0  0  0  0  0  0  0
    4.0414    0.8383   -2.3420 C   0  0  0  0  0  0  0  0  0  0  0  0
    0.7216    1.2535    0.6932 C   0  0  0  0  0  0  0  0  0  0  0  0
   -1.3509    1.3754   -0.7321 C   0  0  0  0  0  0  0  0  0  0  0  0
   -1.6917   -0.4453   -2.4382 C   0  0  0  0  0  0  0  0  0  0  0  0
   -0.7024    1.6229    0.4202 C   0  0  0  0  0  0  0  0  0  0  0  0
    6.6509   -2.4734   -1.5765 C   0  0  0  0  0  0  0  0  0  0  0  0
   -0.4354    1.6724   -3.0345 C   0  0  0  0  0  0  0  0  0  0  0  0
    8.1072    0.7236   -1.2649 C   0  0  0  0  0  0  0  0  0  0  0  0
   -2.7870    1.8218   -0.9072 C   0  0  0  0  0  0  0  0  0  0  0  0
   -3.1204    0.0525   -2.6575 C   0  0  0  0  0  0  0  0  0  0  0  0
   -3.6924    0.6838   -1.3868 C   0  0  2  0  0  0  0  0  0  0  0  0
    9.1064    0.0263   -2.1973 C   0  0  0  0  0  0  0  0  0  0  0  0
   10.1549   -0.8929   -1.5413 C   0  0  2  0  0  0  0  0  0  0  0  0
   -6.0619    0.3280   -1.4965 C   0  0  2  0  0  0  0  0  0  0  0  0
   11.0484   -0.1393   -0.5435 C   0  0  0  0  0  0  0  0  0  0  0  0
   11.0064   -1.5519   -2.6361 C   0  0  0  0  0  0  0  0  0  0  0  0
   -6.5430    0.2287   -0.0238 C   0  0  1  0  0  0  0  0  0  0  0  0
   -7.3545    1.4748    0.3776 C   0  0  2  0  0  0  0  0  0  0  0  0
   -7.8461    1.8516   -2.0945 C   0  0  1  0  0  0  0  0  0  0  0  0
   -8.4258    1.8374   -0.6658 C   0  0  1  0  0  0  0  0  0  0  0  0
   12.9136   -0.4209    0.9252 C   0  0  2  0  0  0  0  0  0  0  0  0
   -7.0561    3.1268   -2.4274 C   0  0  0  0  0  0  0  0  0  0  0  0
   -7.1039   -1.7428    1.2628 C   0  0  2  0  0  0  0  0  0  0  0  0
   12.2359   -0.0092    2.2630 C   0  0  1  0  0  0  0  0  0  0  0  0
   -7.8929   -1.2085    2.4843 C   0  0  1  0  0  0  0  0  0  0  0  0
  -10.6324    1.2720    0.0909 C   0  0  2  0  0  0  0  0  0  0  0  0
   13.2146   -0.0654    3.4546 C   0  0  2  0  0  0  0  0  0  0  0  0
   15.0764   -0.7666    1.8727 C   0  0  1  0  0  0  0  0  0  0  0  0
   14.6383    0.2338    2.9713 C   0  0  1  0  0  0  0  0  0  0  0  0
   -8.4938   -2.3606    3.2976 C   0  0  1  0  0  0  0  0  0  0  0  0
   -8.8529   -3.3221    0.9756 C   0  0  2  0  0  0  0  0  0  0  0  0
  -11.6524    0.1137    0.0244 C   0  0  1  0  0  0  0  0  0  0  0  0
   -9.4030   -3.2347    2.4158 C   0  0  2  0  0  0  0  0  0  0  0  0
   15.8950   -1.9282    2.4465 C   0  0  0  0  0  0  0  0  0  0  0  0
  -12.7058    0.2295    1.1344 C   0  0  1  0  0  0  0  0  0  0  0  0
  -11.4415    2.1379    2.1620 C   0  0  2  0  0  0  0  0  0  0  0  0
  -12.8136    1.6691    1.6387 C   0  0  2  0  0  0  0  0  0  0  0  0
   -9.1277   -4.6902    0.3629 C   0  0  0  0  0  0  0  0  0  0  0  0
  -11.3264    3.6593    2.1555 C   0  0  0  0  0  0  0  0  0  0  0  0
    8.2930   -0.3246    1.0168 H   0  0  0  0  0  0  0  0  0  0  0  0
   -6.9988    3.2581    1.0897 H   0  0  0  0  0  0  0  0  0  0  0  0
   -7.3621    5.0301   -2.6370 H   0  0  0  0  0  0  0  0  0  0  0  0
   12.5166    1.9233    2.1242 H   0  0  0  0  0  0  0  0  0  0  0  0
   -6.6289   -1.0590    3.9613 H   0  0  0  0  0  0  0  0  0  0  0  0
   13.5500   -1.2141    5.0012 H   0  0  0  0  0  0  0  0  0  0  0  0
   15.5697    1.8089    2.2770 H   0  0  0  0  0  0  0  0  0  0  0  0
   -7.0350   -3.6729    3.1513 H   0  0  0  0  0  0  0  0  0  0  0  0
  -11.5882   -0.0134   -1.9146 H   0  0  0  0  0  0  0  0  0  0  0  0
  -11.1254   -2.8176    3.2469 H   0  0  0  0  0  0  0  0  0  0  0  0
   17.5864   -2.2337    3.3446 H   0  0  0  0  0  0  0  0  0  0  0  0
  -13.9112   -0.2662   -0.2997 H   0  0  0  0  0  0  0  0  0  0  0  0
  -14.5384    1.1878    2.3608 H   0  0  0  0  0  0  0  0  0  0  0  0
    2.5011   -0.7732    0.3760 H   0  0  0  0  0  0  0  0  0  0  0  0
    4.5408   -1.9586   -0.2924 H   0  0  0  0  0  0  0  0  0  0  0  0
    1.7420    1.7669   -1.1132 H   0  0  0  0  0  0  0  0  0  0  0  0
    5.2426   -0.6139    1.4467 H   0  0  0  0  0  0  0  0  0  0  0  0
    0.3347   -0.9248   -0.8192 H   0  0  0  0  0  0  0  0  0  0  0  0
    4.0131    1.8745    0.3249 H   0  0  0  0  0  0  0  0  0  0  0  0
    3.5033    0.9093    1.7148 H   0  0  0  0  0  0  0  0  0  0  0  0
    3.3160   -1.6962   -3.0794 H   0  0  0  0  0  0  0  0  0  0  0  0
    2.5653   -2.2221   -1.5813 H   0  0  0  0  0  0  0  0  0  0  0  0
    6.1263   -0.5812   -2.3750 H   0  0  0  0  0  0  0  0  0  0  0  0
    0.8346   -1.5061   -3.1018 H   0  0  0  0  0  0  0  0  0  0  0  0
    1.6323    0.0218   -3.4103 H   0  0  0  0  0  0  0  0  0  0  0  0
    4.4997    0.4634   -3.2638 H   0  0  0  0  0  0  0  0  0  0  0  0
    3.1924    1.4509   -2.6561 H   0  0  0  0  0  0  0  0  0  0  0  0
    4.7583    1.5167   -1.8707 H   0  0  0  0  0  0  0  0  0  0  0  0
    0.7226    0.4390    1.4282 H   0  0  0  0  0  0  0  0  0  0  0  0
    1.2224    2.1073    1.1654 H   0  0  0  0  0  0  0  0  0  0  0  0
   -1.7331   -1.2798   -1.7248 H   0  0  0  0  0  0  0  0  0  0  0  0
   -1.3284   -0.8661   -3.3834 H   0  0  0  0  0  0  0  0  0  0  0  0
   -1.2174    2.1334    1.2322 H   0  0  0  0  0  0  0  0  0  0  0  0
    5.9358   -3.0116   -2.2085 H   0  0  0  0  0  0  0  0  0  0  0  0
    7.6255   -2.5234   -2.0680 H   0  0  0  0  0  0  0  0  0  0  0  0
    6.7213   -3.0127   -0.6260 H   0  0  0  0  0  0  0  0  0  0  0  0
    0.3343    2.3952   -2.7450 H   0  0  0  0  0  0  0  0  0  0  0  0
   -1.3294    2.2504   -3.2915 H   0  0  0  0  0  0  0  0  0  0  0  0
   -0.1109    1.1888   -3.9615 H   0  0  0  0  0  0  0  0  0  0  0  0
    7.5261    1.4320   -1.8721 H   0  0  0  0  0  0  0  0  0  0  0  0
    8.6544    1.3566   -0.5554 H   0  0  0  0  0  0  0  0  0  0  0  0
   -2.8293    2.6585   -1.6160 H   0  0  0  0  0  0  0  0  0  0  0  0
   -3.1988    2.2250    0.0274 H   0  0  0  0  0  0  0  0  0  0  0  0
   -3.1572    0.7717   -3.4850 H   0  0  0  0  0  0  0  0  0  0  0  0
   -3.7503   -0.7861   -2.9766 H   0  0  0  0  0  0  0  0  0  0  0  0
   -3.7612   -0.0711   -0.5929 H   0  0  0  0  0  0  0  0  0  0  0  0
    8.5493   -0.5380   -2.9544 H   0  0  0  0  0  0  0  0  0  0  0  0
    9.6376    0.8117   -2.7526 H   0  0  0  0  0  0  0  0  0  0  0  0
    9.6543   -1.7097   -1.0101 H   0  0  0  0  0  0  0  0  0  0  0  0
   -5.7375   -0.6694   -1.8163 H   0  0  0  0  0  0  0  0  0  0  0  0
   11.5872    0.6684   -1.0528 H   0  0  0  0  0  0  0  0  0  0  0  0
   10.4319    0.2909    0.2485 H   0  0  0  0  0  0  0  0  0  0  0  0
   10.3726   -2.0936   -3.3466 H   0  0  0  0  0  0  0  0  0  0  0  0
   11.5806   -0.8049   -3.1946 H   0  0  0  0  0  0  0  0  0  0  0  0
   11.7113   -2.2738   -2.2112 H   0  0  0  0  0  0  0  0  0  0  0  0
   -5.6606    0.1614    0.6236 H   0  0  0  0  0  0  0  0  0  0  0  0
   -7.8434    1.2731    1.3316 H   0  0  0  0  0  0  0  0  0  0  0  0
   -8.7059    1.8363   -2.7777 H   0  0  0  0  0  0  0  0  0  0  0  0
   -8.8440    2.8281   -0.4465 H   0  0  0  0  0  0  0  0  0  0  0  0
   13.3296    0.4506    0.4027 H   0  0  0  0  0  0  0  0  0  0  0  0
   -6.6474    3.0556   -3.4415 H   0  0  0  0  0  0  0  0  0  0  0  0
   -6.2184    3.2990   -1.7499 H   0  0  0  0  0  0  0  0  0  0  0  0
   -6.0289   -1.7517    1.4771 H   0  0  0  0  0  0  0  0  0  0  0  0
   11.3700   -0.6518    2.4588 H   0  0  0  0  0  0  0  0  0  0  0  0
   -8.7014   -0.5496    2.1546 H   0  0  0  0  0  0  0  0  0  0  0  0
  -11.0316    2.1570   -0.4226 H   0  0  0  0  0  0  0  0  0  0  0  0
   12.9133    0.6968    4.1846 H   0  0  0  0  0  0  0  0  0  0  0  0
   15.7011   -0.2371    1.1417 H   0  0  0  0  0  0  0  0  0  0  0  0
   15.3359    0.2336    3.8154 H   0  0  0  0  0  0  0  0  0  0  0  0
   -9.0548   -1.9503    4.1449 H   0  0  0  0  0  0  0  0  0  0  0  0
   -9.3296   -2.5737    0.3294 H   0  0  0  0  0  0  0  0  0  0  0  0
  -11.1481   -0.8549    0.1174 H   0  0  0  0  0  0  0  0  0  0  0  0
   -9.4757   -4.2373    2.8545 H   0  0  0  0  0  0  0  0  0  0  0  0
   15.3132   -2.5089    3.1694 H   0  0  0  0  0  0  0  0  0  0  0  0
   16.1866   -2.6126    1.6418 H   0  0  0  0  0  0  0  0  0  0  0  0
  -12.4380   -0.4188    1.9770 H   0  0  0  0  0  0  0  0  0  0  0  0
  -11.3241    1.8106    3.2024 H   0  0  0  0  0  0  0  0  0  0  0  0
  -13.1653    2.3129    0.8226 H   0  0  0  0  0  0  0  0  0  0  0  0
  -10.2001   -4.9055    0.3341 H   0  0  0  0  0  0  0  0  0  0  0  0
   -8.7347   -4.7341   -0.6586 H   0  0  0  0  0  0  0  0  0  0  0  0
   -8.6223   -5.4823    0.9264 H   0  0  0  0  0  0  0  0  0  0  0  0
  -12.1134    4.1211    2.7592 H   0  0  0  0  0  0  0  0  0  0  0  0
  -10.3534    3.9685    2.5524 H   0  0  0  0  0  0  0  0  0  0  0  0
  -11.3890    4.0559    1.1366 H   0  0  0  0  0  0  0  0  0  0  0  0
  1 27  1  0
  1 34  1  0
 34  2  1  1
 45  3  1  0
 48  3  1  0
  4 48  1  0
  4 53  1  0
  5 49  1  0
 55  5  1  0
 51  6  1  0
 57  6  1  0
 52  7  1  0
 54  8  1  0
 60  8  1  0
  9 55  1  0
  9 62  1  0
 10 57  1  0
 10 65  1  0
 11 56  1  0
 58 12  1  0
 13 60  1  0
 13 70  1  0
 59 14  1  0
 61 15  1  0
 63 16  1  0
 64 17  1  0
 66 18  1  0
 67 19  1  0
 20 68  1  0
 69 21  1  0
 71 22  1  0
 23 24  1  0
 23 25  1  0
 23 30  1  0
 23 35  1  6
 24 26  1  0
 24 29  1  0
 25 27  1  0
 25 31  1  0
 26 28  1  0
 26 36  1  0
 27 29  1  0
 28 32  1  0
 28 33  1  0
 30 32  1  0
 31 34  1  0
 31 40  1  0
 33 37  1  0
 33 38  1  0
 33 41  1  6
 34 42  1  0
 36 39  1  0
 37 39  2  0
 37 43  1  0
 38 44  1  0
 42 46  1  0
 43 45  1  0
 44 45  1  0
 46 47  1  0
 47 49  1  0
 47 50  1  0
 48 51  1  0
 51 52  1  0
 52 54  1  0
 53 54  1  0
 53 56  1  0
 55 58  1  0
 57 59  1  0
 58 61  1  0
 59 64  1  0
 60 66  1  0
 61 63  1  0
 62 63  1  0
 62 68  1  0
 64 67  1  0
 65 67  1  0
 65 72  1  0
 66 69  1  0
 69 71  1  0
 70 71  1  0
 70 73  1  0
  2 74  1  0
  7 75  1  0
 11 76  1  0
 12 77  1  0
 14 78  1  0
 15 79  1  0
 16 80  1  0
 17 81  1  0
 18 82  1  0
 19 83  1  0
 20 84  1  0
 21 85  1  0
 22 86  1  0
 24 87  1  1
 25 88  1  1
 26 89  1  6
 27 90  1  1
 28 91  1  1
 29 92  1  0
 29 93  1  0
 30 94  1  0
 30 95  1  0
 31 96  1  6
 32 97  1  0
 32 98  1  0
 35 99  1  0
 35100  1  0
 35101  1  0
 36102  1  0
 36103  1  0
 38104  1  0
 38105  1  0
 39106  1  0
 40107  1  0
 40108  1  0
 40109  1  0
 41110  1  0
 41111  1  0
 41112  1  0
 42113  1  0
 42114  1  0
 43115  1  0
 43116  1  0
 44117  1  0
 44118  1  0
 45119  1  1
 46120  1  0
 46121  1  0
 47122  1  1
 48123  1  6
 49124  1  0
 49125  1  0
 50126  1  0
 50127  1  0
 50128  1  0
 51129  1  1
 52130  1  1
 53131  1  6
 54132  1  1
 55133  1  6
 56134  1  0
 56135  1  0
 57136  1  1
 58137  1  1
 59138  1  6
 60139  1  6
 61140  1  1
 62141  1  6
 63142  1  1
 64143  1  1
 65144  1  6
 66145  1  1
 67146  1  1
 68147  1  0
 68148  1  0
 69149  1  1
 70150  1  1
 71151  1  6
 72152  1  0
 72153  1  0
 72154  1  0
 73155  1  0
 73156  1  0
 73157  1  0
M  END
$$$$
