IMPHY009563
     RDKit          3D

 92 91  0  0  1  0  0  0  0  0999 V2000
    0.2433    0.3865    1.9995 O   0  0  0  0  0  0  0  0  0  0  0  0
   -0.9556   -0.3303    3.8218 O   0  0  0  0  0  0  0  0  0  0  0  0
   -8.5450   -0.7082   -2.4108 C   0  0  0  0  0  0  0  0  0  0  0  0
   -7.0275   -0.5288   -2.2551 C   0  0  0  0  0  0  0  0  0  0  0  0
   -9.1045   -2.0160   -1.8094 C   0  0  0  0  0  0  0  0  0  0  0  0
   -6.5807    0.3326   -1.0681 C   0  0  0  0  0  0  0  0  0  0  0  0
   -6.9061    1.8174   -1.2442 C   0  0  0  0  0  0  0  0  0  0  0  0
   -6.5606    2.6826   -0.0256 C   0  0  0  0  0  0  0  0  0  0  0  0
   -5.0669    2.7376    0.3170 C   0  0  0  0  0  0  0  0  0  0  0  0
   -4.6836    1.7814    1.4514 C   0  0  0  0  0  0  0  0  0  0  0  0
   -8.9573   -2.1414   -0.2818 C   0  0  0  0  0  0  0  0  0  0  0  0
   -3.1718    1.6940    1.6911 C   0  0  0  0  0  0  0  0  0  0  0  0
    5.4052   -0.9786   -1.7043 C   0  0  0  0  0  0  0  0  0  0  0  0
    5.2473    0.2413   -0.7909 C   0  0  0  0  0  0  0  0  0  0  0  0
    6.3401   -2.0768   -1.1876 C   0  0  0  0  0  0  0  0  0  0  0  0
    4.7644   -0.0534    0.6325 C   0  0  0  0  0  0  0  0  0  0  0  0
    7.7711   -1.6316   -0.8676 C   0  0  0  0  0  0  0  0  0  0  0  0
  -10.5649   -2.1977   -2.2409 C   0  0  0  0  0  0  0  0  0  0  0  0
   -2.5654    2.9882    2.2365 C   0  0  0  0  0  0  0  0  0  0  0  0
    3.3857   -0.7171    0.6816 C   0  0  0  0  0  0  0  0  0  0  0  0
    8.5127   -1.0640   -2.0805 C   0  0  0  0  0  0  0  0  0  0  0  0
    2.9046   -0.8814    2.1254 C   0  0  0  0  0  0  0  0  0  0  0  0
    9.9992   -0.8038   -1.8123 C   0  0  0  0  0  0  0  0  0  0  0  0
   -1.0403    2.9441    2.3975 C   0  0  0  0  0  0  0  0  0  0  0  0
   -9.7064   -1.0953    0.5330 C   0  0  0  0  0  0  0  0  0  0  0  0
    1.5820   -1.6472    2.2417 C   0  0  0  0  0  0  0  0  0  0  0  0
   10.2412    0.2881   -0.7665 C   0  0  0  0  0  0  0  0  0  0  0  0
   -0.5404    2.0269    3.5134 C   0  0  0  0  0  0  0  0  0  0  0  0
    0.3937   -0.9709    1.5598 C   0  0  0  0  0  0  0  0  0  0  0  0
   11.7112    0.7004   -0.6546 C   0  0  0  0  0  0  0  0  0  0  0  0
   -0.4701    0.5652    3.1435 C   0  0  0  0  0  0  0  0  0  0  0  0
   12.6156   -0.4120   -0.1469 C   0  0  0  0  0  0  0  0  0  0  0  0
   -9.0953    0.1562   -2.0274 H   0  0  0  0  0  0  0  0  0  0  0  0
   -8.7511   -0.7337   -3.4898 H   0  0  0  0  0  0  0  0  0  0  0  0
   -6.5445   -1.5110   -2.1858 H   0  0  0  0  0  0  0  0  0  0  0  0
   -6.6386   -0.0664   -3.1717 H   0  0  0  0  0  0  0  0  0  0  0  0
   -8.5410   -2.8497   -2.2507 H   0  0  0  0  0  0  0  0  0  0  0  0
   -7.0166   -0.0366   -0.1364 H   0  0  0  0  0  0  0  0  0  0  0  0
   -5.4942    0.2191   -0.9760 H   0  0  0  0  0  0  0  0  0  0  0  0
   -6.3776    2.2042   -2.1243 H   0  0  0  0  0  0  0  0  0  0  0  0
   -7.9754    1.9450   -1.4444 H   0  0  0  0  0  0  0  0  0  0  0  0
   -6.8901    3.7040   -0.2569 H   0  0  0  0  0  0  0  0  0  0  0  0
   -7.1483    2.3608    0.8425 H   0  0  0  0  0  0  0  0  0  0  0  0
   -4.8370    3.7610    0.6361 H   0  0  0  0  0  0  0  0  0  0  0  0
   -4.4599    2.5427   -0.5746 H   0  0  0  0  0  0  0  0  0  0  0  0
   -5.1841    2.0913    2.3772 H   0  0  0  0  0  0  0  0  0  0  0  0
   -5.0457    0.7729    1.2270 H   0  0  0  0  0  0  0  0  0  0  0  0
   -7.8961   -2.1170   -0.0116 H   0  0  0  0  0  0  0  0  0  0  0  0
   -9.3155   -3.1325    0.0254 H   0  0  0  0  0  0  0  0  0  0  0  0
   -2.6686    1.4071    0.7601 H   0  0  0  0  0  0  0  0  0  0  0  0
   -3.0049    0.8845    2.4085 H   0  0  0  0  0  0  0  0  0  0  0  0
    4.4196   -1.4221   -1.8905 H   0  0  0  0  0  0  0  0  0  0  0  0
    5.7579   -0.6338   -2.6838 H   0  0  0  0  0  0  0  0  0  0  0  0
    4.5432    0.9364   -1.2656 H   0  0  0  0  0  0  0  0  0  0  0  0
    6.2021    0.7771   -0.7314 H   0  0  0  0  0  0  0  0  0  0  0  0
    6.3783   -2.8765   -1.9382 H   0  0  0  0  0  0  0  0  0  0  0  0
    5.9065   -2.5309   -0.2887 H   0  0  0  0  0  0  0  0  0  0  0  0
    5.4964   -0.6775    1.1576 H   0  0  0  0  0  0  0  0  0  0  0  0
    4.7225    0.8972    1.1791 H   0  0  0  0  0  0  0  0  0  0  0  0
    7.7545   -0.8981   -0.0550 H   0  0  0  0  0  0  0  0  0  0  0  0
    8.3200   -2.5024   -0.4879 H   0  0  0  0  0  0  0  0  0  0  0  0
  -11.1890   -1.3555   -1.9254 H   0  0  0  0  0  0  0  0  0  0  0  0
  -10.9866   -3.1158   -1.8185 H   0  0  0  0  0  0  0  0  0  0  0  0
  -10.6370   -2.2725   -3.3315 H   0  0  0  0  0  0  0  0  0  0  0  0
   -2.7938    3.8137    1.5531 H   0  0  0  0  0  0  0  0  0  0  0  0
   -3.0310    3.2389    3.1973 H   0  0  0  0  0  0  0  0  0  0  0  0
    3.4253   -1.7018    0.2031 H   0  0  0  0  0  0  0  0  0  0  0  0
    2.6739   -0.1052    0.1165 H   0  0  0  0  0  0  0  0  0  0  0  0
    8.4342   -1.7736   -2.9134 H   0  0  0  0  0  0  0  0  0  0  0  0
    8.0406   -0.1322   -2.4117 H   0  0  0  0  0  0  0  0  0  0  0  0
    2.8081    0.1035    2.5980 H   0  0  0  0  0  0  0  0  0  0  0  0
    3.6652   -1.4278    2.6971 H   0  0  0  0  0  0  0  0  0  0  0  0
   10.4769   -1.7393   -1.4997 H   0  0  0  0  0  0  0  0  0  0  0  0
   10.4699   -0.5066   -2.7575 H   0  0  0  0  0  0  0  0  0  0  0  0
   -0.7123    3.9634    2.6392 H   0  0  0  0  0  0  0  0  0  0  0  0
   -0.5768    2.6927    1.4367 H   0  0  0  0  0  0  0  0  0  0  0  0
  -10.7876   -1.1729    0.3862 H   0  0  0  0  0  0  0  0  0  0  0  0
   -9.5087   -1.2448    1.5996 H   0  0  0  0  0  0  0  0  0  0  0  0
   -9.3962   -0.0786    0.2780 H   0  0  0  0  0  0  0  0  0  0  0  0
    1.7024   -2.6576    1.8338 H   0  0  0  0  0  0  0  0  0  0  0  0
    1.3612   -1.7610    3.3098 H   0  0  0  0  0  0  0  0  0  0  0  0
    9.6552    1.1767   -1.0317 H   0  0  0  0  0  0  0  0  0  0  0  0
    9.8873   -0.0448    0.2159 H   0  0  0  0  0  0  0  0  0  0  0  0
   -1.1732    2.1316    4.4021 H   0  0  0  0  0  0  0  0  0  0  0  0
    0.4735    2.3238    3.8081 H   0  0  0  0  0  0  0  0  0  0  0  0
    0.5394   -0.9430    0.4751 H   0  0  0  0  0  0  0  0  0  0  0  0
   -0.5281   -1.5408    1.7293 H   0  0  0  0  0  0  0  0  0  0  0  0
   12.0756    1.0517   -1.6269 H   0  0  0  0  0  0  0  0  0  0  0  0
   11.7820    1.5496    0.0355 H   0  0  0  0  0  0  0  0  0  0  0  0
   12.2581   -0.8031    0.8108 H   0  0  0  0  0  0  0  0  0  0  0  0
   13.6317   -0.0319    0.0005 H   0  0  0  0  0  0  0  0  0  0  0  0
   12.6723   -1.2397   -0.8600 H   0  0  0  0  0  0  0  0  0  0  0  0
  1 29  1  0
  1 31  1  0
  2 31  2  0
  3  4  1  0
  3  5  1  0
  4  6  1  0
  5 11  1  0
  5 18  1  0
  6  7  1  0
  7  8  1  0
  8  9  1  0
  9 10  1  0
 10 12  1  0
 11 25  1  0
 12 19  1  0
 13 14  1  0
 13 15  1  0
 14 16  1  0
 15 17  1  0
 16 20  1  0
 17 21  1  0
 19 24  1  0
 20 22  1  0
 21 23  1  0
 22 26  1  0
 23 27  1  0
 24 28  1  0
 26 29  1  0
 27 30  1  0
 28 31  1  0
 30 32  1  0
  3 33  1  0
  3 34  1  0
  4 35  1  0
  4 36  1  0
  5 37  1  0
  6 38  1  0
  6 39  1  0
  7 40  1  0
  7 41  1  0
  8 42  1  0
  8 43  1  0
  9 44  1  0
  9 45  1  0
 10 46  1  0
 10 47  1  0
 11 48  1  0
 11 49  1  0
 12 50  1  0
 12 51  1  0
 13 52  1  0
 13 53  1  0
 14 54  1  0
 14 55  1  0
 15 56  1  0
 15 57  1  0
 16 58  1  0
 16 59  1  0
 17 60  1  0
 17 61  1  0
 18 62  1  0
 18 63  1  0
 18 64  1  0
 19 65  1  0
 19 66  1  0
 20 67  1  0
 20 68  1  0
 21 69  1  0
 21 70  1  0
 22 71  1  0
 22 72  1  0
 23 73  1  0
 23 74  1  0
 24 75  1  0
 24 76  1  0
 25 77  1  0
 25 78  1  0
 25 79  1  0
 26 80  1  0
 26 81  1  0
 27 82  1  0
 27 83  1  0
 28 84  1  0
 28 85  1  0
 29 86  1  0
 29 87  1  0
 30 88  1  0
 30 89  1  0
 32 90  1  0
 32 91  1  0
 32 92  1  0
M  END
$$$$
