IMPHY010545
     RDKit          3D

128127  0  0  0  0  0  0  0  0999 V2000
    1.6417    1.8957   -3.4106 O   0  0  0  0  0  0  0  0  0  0  0  0
    2.5034   -0.1310   -4.0713 O   0  0  0  0  0  0  0  0  0  0  0  0
   -5.8323   -1.7621    1.3854 C   0  0  0  0  0  0  0  0  0  0  0  0
   -5.7679   -1.2493   -0.0557 C   0  0  0  0  0  0  0  0  0  0  0  0
   -7.1381   -2.5160    1.6445 C   0  0  0  0  0  0  0  0  0  0  0  0
   -4.4630   -0.4945   -0.3169 C   0  0  0  0  0  0  0  0  0  0  0  0
   -7.2400   -3.0857    3.0596 C   0  0  0  0  0  0  0  0  0  0  0  0
   -4.3903    0.1287   -1.7137 C   0  0  0  0  0  0  0  0  0  0  0  0
   -7.2418   -2.0700    4.2082 C   0  0  0  0  0  0  0  0  0  0  0  0
   -4.4804   -0.8503   -2.8906 C   0  0  0  0  0  0  0  0  0  0  0  0
   -8.4481   -1.1224    4.2270 C   0  0  0  0  0  0  0  0  0  0  0  0
   -3.4731   -2.0057   -2.8836 C   0  0  0  0  0  0  0  0  0  0  0  0
   -8.1663    0.2308    3.5677 C   0  0  0  0  0  0  0  0  0  0  0  0
   -1.9939   -1.6030   -2.9231 C   0  0  0  0  0  0  0  0  0  0  0  0
   -9.3079    1.2392    3.7385 C   0  0  0  0  0  0  0  0  0  0  0  0
    8.6373   -1.7287   -0.1956 C   0  0  0  0  0  0  0  0  0  0  0  0
   10.1524   -1.8746   -0.0105 C   0  0  0  0  0  0  0  0  0  0  0  0
    8.1409   -1.9739   -1.6256 C   0  0  0  0  0  0  0  0  0  0  0  0
   11.0276   -0.8211   -0.6912 C   0  0  0  0  0  0  0  0  0  0  0  0
   -1.3714   -1.5897   -4.3244 C   0  0  0  0  0  0  0  0  0  0  0  0
  -10.6639    0.8230    3.1578 C   0  0  0  0  0  0  0  0  0  0  0  0
    7.9832   -0.7295   -2.5061 C   0  0  0  0  0  0  0  0  0  0  0  0
   10.7685    0.6296   -0.2724 C   0  0  0  0  0  0  0  0  0  0  0  0
    6.9989    0.3362   -2.0078 C   0  0  0  0  0  0  0  0  0  0  0  0
   10.8805    0.9181    1.2285 C   0  0  0  0  0  0  0  0  0  0  0  0
   -1.9006   -0.5353   -5.2942 C   0  0  0  0  0  0  0  0  0  0  0  0
  -10.6305    0.5811    1.6472 C   0  0  0  0  0  0  0  0  0  0  0  0
    5.5711   -0.1836   -1.8273 C   0  0  0  0  0  0  0  0  0  0  0  0
   12.2673    0.6137    1.8005 C   0  0  0  0  0  0  0  0  0  0  0  0
   -1.7389    0.9278   -4.8683 C   0  0  0  0  0  0  0  0  0  0  0  0
  -11.9863    0.1652    1.0661 C   0  0  0  0  0  0  0  0  0  0  0  0
    4.5861    0.8923   -1.3567 C   0  0  0  0  0  0  0  0  0  0  0  0
   12.4474    1.0928    3.2455 C   0  0  0  0  0  0  0  0  0  0  0  0
    4.4066    2.0958   -2.2898 C   0  0  0  0  0  0  0  0  0  0  0  0
   -0.2901    1.4166   -4.7984 C   0  0  0  0  0  0  0  0  0  0  0  0
  -13.1283    1.1713    1.2378 C   0  0  0  0  0  0  0  0  0  0  0  0
   11.5720    0.3352    4.2476 C   0  0  0  0  0  0  0  0  0  0  0  0
    3.9756    1.7493   -3.7120 C   0  0  0  0  0  0  0  0  0  0  0  0
    0.3199    1.3310   -3.4017 C   0  0  0  0  0  0  0  0  0  0  0  0
  -12.8431    2.5317    0.6012 C   0  0  0  0  0  0  0  0  0  0  0  0
   11.7588    0.8075    5.6920 C   0  0  0  0  0  0  0  0  0  0  0  0
    2.6444    1.0432   -3.7584 C   0  0  0  0  0  0  0  0  0  0  0  0
  -14.0510    3.4515    0.6941 C   0  0  0  0  0  0  0  0  0  0  0  0
   13.1356    0.5003    6.2605 C   0  0  0  0  0  0  0  0  0  0  0  0
   -5.7391   -0.9140    2.0717 H   0  0  0  0  0  0  0  0  0  0  0  0
   -4.9815   -2.4272    1.5768 H   0  0  0  0  0  0  0  0  0  0  0  0
   -5.8562   -2.0983   -0.7426 H   0  0  0  0  0  0  0  0  0  0  0  0
   -6.6201   -0.5858   -0.2467 H   0  0  0  0  0  0  0  0  0  0  0  0
   -7.2066   -3.3531    0.9379 H   0  0  0  0  0  0  0  0  0  0  0  0
   -7.9990   -1.8734    1.4342 H   0  0  0  0  0  0  0  0  0  0  0  0
   -4.3651    0.3137    0.4190 H   0  0  0  0  0  0  0  0  0  0  0  0
   -3.6070   -1.1597   -0.1559 H   0  0  0  0  0  0  0  0  0  0  0  0
   -8.1542   -3.6894    3.1234 H   0  0  0  0  0  0  0  0  0  0  0  0
   -6.4062   -3.7814    3.2185 H   0  0  0  0  0  0  0  0  0  0  0  0
   -5.2026    0.8598   -1.8158 H   0  0  0  0  0  0  0  0  0  0  0  0
   -3.4622    0.7065   -1.7869 H   0  0  0  0  0  0  0  0  0  0  0  0
   -7.2681   -2.6527    5.1387 H   0  0  0  0  0  0  0  0  0  0  0  0
   -6.3005   -1.5105    4.2357 H   0  0  0  0  0  0  0  0  0  0  0  0
   -4.3842   -0.2787   -3.8190 H   0  0  0  0  0  0  0  0  0  0  0  0
   -5.4898   -1.2791   -2.9167 H   0  0  0  0  0  0  0  0  0  0  0  0
   -9.3141   -1.6094    3.7661 H   0  0  0  0  0  0  0  0  0  0  0  0
   -8.7141   -0.9360    5.2755 H   0  0  0  0  0  0  0  0  0  0  0  0
   -3.6974   -2.6742   -3.7240 H   0  0  0  0  0  0  0  0  0  0  0  0
   -3.6422   -2.6059   -1.9815 H   0  0  0  0  0  0  0  0  0  0  0  0
   -7.9433    0.1075    2.5050 H   0  0  0  0  0  0  0  0  0  0  0  0
   -7.2657    0.6660    4.0190 H   0  0  0  0  0  0  0  0  0  0  0  0
   -1.8187   -0.6544   -2.4098 H   0  0  0  0  0  0  0  0  0  0  0  0
   -1.4390   -2.3552   -2.3463 H   0  0  0  0  0  0  0  0  0  0  0  0
   -9.4395    1.4455    4.8082 H   0  0  0  0  0  0  0  0  0  0  0  0
   -9.0027    2.1878    3.2791 H   0  0  0  0  0  0  0  0  0  0  0  0
    8.2880   -0.7721    0.2018 H   0  0  0  0  0  0  0  0  0  0  0  0
    8.1746   -2.4955    0.4404 H   0  0  0  0  0  0  0  0  0  0  0  0
   10.4587   -2.8635   -0.3749 H   0  0  0  0  0  0  0  0  0  0  0  0
   10.3686   -1.8796    1.0647 H   0  0  0  0  0  0  0  0  0  0  0  0
    7.1711   -2.4829   -1.5712 H   0  0  0  0  0  0  0  0  0  0  0  0
    8.8101   -2.6803   -2.1323 H   0  0  0  0  0  0  0  0  0  0  0  0
   10.9162   -0.9015   -1.7781 H   0  0  0  0  0  0  0  0  0  0  0  0
   12.0778   -1.0674   -0.4918 H   0  0  0  0  0  0  0  0  0  0  0  0
   -1.5194   -2.5773   -4.7804 H   0  0  0  0  0  0  0  0  0  0  0  0
   -0.2858   -1.4766   -4.2276 H   0  0  0  0  0  0  0  0  0  0  0  0
  -11.0353   -0.0713    3.6705 H   0  0  0  0  0  0  0  0  0  0  0  0
  -11.3750    1.6259    3.3842 H   0  0  0  0  0  0  0  0  0  0  0  0
    7.6565   -1.0603   -3.5006 H   0  0  0  0  0  0  0  0  0  0  0  0
    8.9579   -0.2555   -2.6567 H   0  0  0  0  0  0  0  0  0  0  0  0
   11.4762    1.2734   -0.8099 H   0  0  0  0  0  0  0  0  0  0  0  0
    9.7722    0.9355   -0.6085 H   0  0  0  0  0  0  0  0  0  0  0  0
    7.0025    1.1484   -2.7438 H   0  0  0  0  0  0  0  0  0  0  0  0
    7.3531    0.7736   -1.0685 H   0  0  0  0  0  0  0  0  0  0  0  0
   10.6532    1.9797    1.3870 H   0  0  0  0  0  0  0  0  0  0  0  0
   10.1125    0.3540    1.7675 H   0  0  0  0  0  0  0  0  0  0  0  0
   -2.9603   -0.7299   -5.4932 H   0  0  0  0  0  0  0  0  0  0  0  0
   -1.3945   -0.6747   -6.2584 H   0  0  0  0  0  0  0  0  0  0  0  0
  -10.2588    1.4753    1.1343 H   0  0  0  0  0  0  0  0  0  0  0  0
   -9.9202   -0.2217    1.4205 H   0  0  0  0  0  0  0  0  0  0  0  0
    5.2179   -0.6373   -2.7600 H   0  0  0  0  0  0  0  0  0  0  0  0
    5.5653   -0.9800   -1.0742 H   0  0  0  0  0  0  0  0  0  0  0  0
   13.0251    1.1084    1.1804 H   0  0  0  0  0  0  0  0  0  0  0  0
   12.4705   -0.4621    1.7523 H   0  0  0  0  0  0  0  0  0  0  0  0
   -2.2616    1.1249   -3.9272 H   0  0  0  0  0  0  0  0  0  0  0  0
   -2.2520    1.5325   -5.6277 H   0  0  0  0  0  0  0  0  0  0  0  0
  -11.8541   -0.0378   -0.0041 H   0  0  0  0  0  0  0  0  0  0  0  0
  -12.2906   -0.7850    1.5228 H   0  0  0  0  0  0  0  0  0  0  0  0
    3.6106    0.4181   -1.1917 H   0  0  0  0  0  0  0  0  0  0  0  0
    4.9105    1.2634   -0.3763 H   0  0  0  0  0  0  0  0  0  0  0  0
   13.5031    0.9611    3.5084 H   0  0  0  0  0  0  0  0  0  0  0  0
   12.2371    2.1674    3.3063 H   0  0  0  0  0  0  0  0  0  0  0  0
    5.3395    2.6694   -2.3329 H   0  0  0  0  0  0  0  0  0  0  0  0
    3.6632    2.7650   -1.8385 H   0  0  0  0  0  0  0  0  0  0  0  0
    0.3363    0.8899   -5.5277 H   0  0  0  0  0  0  0  0  0  0  0  0
   -0.2620    2.4707   -5.1051 H   0  0  0  0  0  0  0  0  0  0  0  0
  -14.0278    0.7424    0.7779 H   0  0  0  0  0  0  0  0  0  0  0  0
  -13.3615    1.2991    2.3010 H   0  0  0  0  0  0  0  0  0  0  0  0
   10.5160    0.4714    3.9887 H   0  0  0  0  0  0  0  0  0  0  0  0
   11.7787   -0.7399    4.1825 H   0  0  0  0  0  0  0  0  0  0  0  0
    3.8966    2.6606   -4.3168 H   0  0  0  0  0  0  0  0  0  0  0  0
    4.7213    1.1207   -4.2102 H   0  0  0  0  0  0  0  0  0  0  0  0
    0.3430    0.3115   -3.0072 H   0  0  0  0  0  0  0  0  0  0  0  0
   -0.2714    1.9284   -2.6992 H   0  0  0  0  0  0  0  0  0  0  0  0
  -11.9968    3.0156    1.1004 H   0  0  0  0  0  0  0  0  0  0  0  0
  -12.5710    2.4008   -0.4524 H   0  0  0  0  0  0  0  0  0  0  0  0
   11.0075    0.3111    6.3179 H   0  0  0  0  0  0  0  0  0  0  0  0
   11.5667    1.8845    5.7609 H   0  0  0  0  0  0  0  0  0  0  0  0
  -14.3320    3.6253    1.7377 H   0  0  0  0  0  0  0  0  0  0  0  0
  -13.8257    4.4201    0.2369 H   0  0  0  0  0  0  0  0  0  0  0  0
  -14.9125    3.0224    0.1725 H   0  0  0  0  0  0  0  0  0  0  0  0
   13.1709    0.7668    7.3218 H   0  0  0  0  0  0  0  0  0  0  0  0
   13.3692   -0.5653    6.1714 H   0  0  0  0  0  0  0  0  0  0  0  0
   13.9176    1.0707    5.7513 H   0  0  0  0  0  0  0  0  0  0  0  0
  1 39  1  0
  1 42  1  0
  2 42  2  0
  3  4  1  0
  3  5  1  0
  4  6  1  0
  5  7  1  0
  6  8  1  0
  7  9  1  0
  8 10  1  0
  9 11  1  0
 10 12  1  0
 11 13  1  0
 12 14  1  0
 13 15  1  0
 14 20  1  0
 15 21  1  0
 16 17  1  0
 16 18  1  0
 17 19  1  0
 18 22  1  0
 19 23  1  0
 20 26  1  0
 21 27  1  0
 22 24  1  0
 23 25  1  0
 24 28  1  0
 25 29  1  0
 26 30  1  0
 27 31  1  0
 28 32  1  0
 29 33  1  0
 30 35  1  0
 31 36  1  0
 32 34  1  0
 33 37  1  0
 34 38  1  0
 35 39  1  0
 36 40  1  0
 37 41  1  0
 38 42  1  0
 40 43  1  0
 41 44  1  0
  3 45  1  0
  3 46  1  0
  4 47  1  0
  4 48  1  0
  5 49  1  0
  5 50  1  0
  6 51  1  0
  6 52  1  0
  7 53  1  0
  7 54  1  0
  8 55  1  0
  8 56  1  0
  9 57  1  0
  9 58  1  0
 10 59  1  0
 10 60  1  0
 11 61  1  0
 11 62  1  0
 12 63  1  0
 12 64  1  0
 13 65  1  0
 13 66  1  0
 14 67  1  0
 14 68  1  0
 15 69  1  0
 15 70  1  0
 16 71  1  0
 16 72  1  0
 17 73  1  0
 17 74  1  0
 18 75  1  0
 18 76  1  0
 19 77  1  0
 19 78  1  0
 20 79  1  0
 20 80  1  0
 21 81  1  0
 21 82  1  0
 22 83  1  0
 22 84  1  0
 23 85  1  0
 23 86  1  0
 24 87  1  0
 24 88  1  0
 25 89  1  0
 25 90  1  0
 26 91  1  0
 26 92  1  0
 27 93  1  0
 27 94  1  0
 28 95  1  0
 28 96  1  0
 29 97  1  0
 29 98  1  0
 30 99  1  0
 30100  1  0
 31101  1  0
 31102  1  0
 32103  1  0
 32104  1  0
 33105  1  0
 33106  1  0
 34107  1  0
 34108  1  0
 35109  1  0
 35110  1  0
 36111  1  0
 36112  1  0
 37113  1  0
 37114  1  0
 38115  1  0
 38116  1  0
 39117  1  0
 39118  1  0
 40119  1  0
 40120  1  0
 41121  1  0
 41122  1  0
 43123  1  0
 43124  1  0
 43125  1  0
 44126  1  0
 44127  1  0
 44128  1  0
M  END
$$$$
