IMPHY005984
  -OEChem-01202214543D

 38 38  0     0  0  0  0  0  0999 V2000
   -1.7516   -3.1429   -0.1421 O   0  0  0  0  0  0  0  0  0  0  0  0
    2.3514   -0.5050    0.0581 C   0  0  0  0  0  0  0  0  0  0  0  0
    2.3070    1.0566    0.2208 C   0  0  0  0  0  0  0  0  0  0  0  0
    3.3290   -1.0819    1.0989 C   0  0  0  0  0  0  0  0  0  0  0  0
    2.8832   -0.8625   -1.3458 C   0  0  0  0  0  0  0  0  0  0  0  0
    0.9596   -1.0640    0.3414 C   0  0  0  0  0  0  0  0  0  0  0  0
    1.1454    1.7008   -0.5033 C   0  0  0  0  0  0  0  0  0  0  0  0
    0.0590    2.2849    0.0461 C   0  0  0  0  0  0  0  0  0  0  0  0
   -1.1415    2.6178   -0.8278 C   0  0  0  0  0  0  0  0  0  0  0  0
   -2.3263    1.6446   -0.6246 C   0  0  0  0  0  0  0  0  0  0  0  0
    0.2155   -1.8488   -0.4547 C   0  0  0  0  0  0  0  0  0  0  0  0
   -0.1224    2.5682    1.5117 C   0  0  0  0  0  0  0  0  0  0  0  0
   -1.8886    0.2105   -0.7721 C   0  0  0  0  0  0  0  0  0  0  0  0
   -2.0102   -0.7816    0.1303 C   0  0  0  0  0  0  0  0  0  0  0  0
   -1.2327   -2.0338   -0.1496 C   0  0  0  0  0  0  0  0  0  0  0  0
   -2.7767   -0.7626    1.4126 C   0  0  0  0  0  0  0  0  0  0  0  0
    3.2375    1.4978   -0.1588 H   0  0  0  0  0  0  0  0  0  0  0  0
    2.2824    1.3000    1.2878 H   0  0  0  0  0  0  0  0  0  0  0  0
    4.3354   -0.6689    0.9658 H   0  0  0  0  0  0  0  0  0  0  0  0
    3.0099   -0.8516    2.1223 H   0  0  0  0  0  0  0  0  0  0  0  0
    3.4018   -2.1726    1.0146 H   0  0  0  0  0  0  0  0  0  0  0  0
    3.8671   -0.4109   -1.5186 H   0  0  0  0  0  0  0  0  0  0  0  0
    3.0001   -1.9461   -1.4652 H   0  0  0  0  0  0  0  0  0  0  0  0
    2.2169   -0.5102   -2.1406 H   0  0  0  0  0  0  0  0  0  0  0  0
    0.5124   -0.6937    1.2647 H   0  0  0  0  0  0  0  0  0  0  0  0
    1.1582    1.5639   -1.5836 H   0  0  0  0  0  0  0  0  0  0  0  0
   -1.4716    3.6436   -0.6221 H   0  0  0  0  0  0  0  0  0  0  0  0
   -0.8554    2.6062   -1.8881 H   0  0  0  0  0  0  0  0  0  0  0  0
   -3.0953    1.8592   -1.3757 H   0  0  0  0  0  0  0  0  0  0  0  0
   -2.7790    1.8334    0.3535 H   0  0  0  0  0  0  0  0  0  0  0  0
    0.5823   -2.2996   -1.3680 H   0  0  0  0  0  0  0  0  0  0  0  0
   -0.5266    3.5768    1.6513 H   0  0  0  0  0  0  0  0  0  0  0  0
    0.8107    2.5305    2.0776 H   0  0  0  0  0  0  0  0  0  0  0  0
   -0.8203    1.8539    1.9589 H   0  0  0  0  0  0  0  0  0  0  0  0
   -1.3400    0.0161   -1.6940 H   0  0  0  0  0  0  0  0  0  0  0  0
   -3.4011    0.1277    1.5205 H   0  0  0  0  0  0  0  0  0  0  0  0
   -2.0911   -0.8006    2.2653 H   0  0  0  0  0  0  0  0  0  0  0  0
   -3.4444   -1.6287    1.4703 H   0  0  0  0  0  0  0  0  0  0  0  0
  1 15  2  0  0  0  0
  2  3  1  0  0  0  0
  2  4  1  0  0  0  0
  2  5  1  0  0  0  0
  2  6  1  0  0  0  0
  3  7  1  0  0  0  0
  3 17  1  0  0  0  0
  3 18  1  0  0  0  0
  4 19  1  0  0  0  0
  4 20  1  0  0  0  0
  4 21  1  0  0  0  0
  5 22  1  0  0  0  0
  5 23  1  0  0  0  0
  5 24  1  0  0  0  0
  6 11  2  0  0  0  0
  6 25  1  0  0  0  0
  7  8  2  0  0  0  0
  7 26  1  0  0  0  0
  8  9  1  0  0  0  0
  8 12  1  0  0  0  0
  9 10  1  0  0  0  0
  9 27  1  0  0  0  0
  9 28  1  0  0  0  0
 10 13  1  0  0  0  0
 10 29  1  0  0  0  0
 10 30  1  0  0  0  0
 11 15  1  0  0  0  0
 11 31  1  0  0  0  0
 12 32  1  0  0  0  0
 12 33  1  0  0  0  0
 12 34  1  0  0  0  0
 13 14  2  0  0  0  0
 13 35  1  0  0  0  0
 14 15  1  0  0  0  0
 14 16  1  0  0  0  0
 16 36  1  0  0  0  0
 16 37  1  0  0  0  0
 16 38  1  0  0  0  0
M  END
$$$$
